data_crystal

_cell_length_a   32.8058000
_cell_length_b   32.8064000
_cell_length_c   30.0152000
_cell_angle_alpha   90.0000000
_cell_angle_beta   90.0000000
_cell_angle_gamma   89.9486000

_symmetry_space_group_name_Hall 'P 1'
_symmetry_space_group_name_H-M  'P 1'

loop_
_symmetry_equiv_pos_as_xyz
 'x,y,z' 

loop_
_atom_site_label
_atom_site_type_symbol
_atom_site_fract_x
_atom_site_fract_y
_atom_site_fract_z
_atom_site_charge
C   C      0.9937200    0.3972200    0.3126100    0.0323357
C   C      0.0314900    0.4123100    0.2969000   -0.1194874
C   C      0.0331500    0.4460000    0.2679800   -0.1219022
C   C      0.9972000    0.4646000    0.2512700    0.0253320
C   C      0.4601400    0.4528400    0.2721600   -0.1132761
C   C      0.4582900    0.4197000    0.3017300   -0.1216037
C   C      0.9979200    0.9985900    0.2164800   -0.0130810
C   C      0.0001800    0.0354800    0.2474200    0.0253788
C   C      0.4649300    0.0549200    0.2648300   -0.1224360
C   C      0.4677000    0.0900900    0.2914600   -0.1184552
C   C      0.0060700    0.1061900    0.3036500    0.0295200
C   C      0.0412600    0.0840800    0.2912800   -0.1234089
C   C      0.0382300    0.0491500    0.2644400   -0.1137040
C   C      0.0326800    0.9981300    0.1825700    0.0250865
C   C      0.4615500    0.4962100    0.1848200    0.0254181
C   C      0.4424800    0.0313500    0.1667000   -0.1223603
C   C      0.4076100    0.0284600    0.1396100   -0.1192770
C   C      0.3913900    0.4900900    0.1274400    0.0297183
C   C      0.4132200    0.4549600    0.1407200   -0.1197394
C   C      0.4477800    0.4580700    0.1681500   -0.1133726
C   C      0.0514000    0.4616400    0.1675200   -0.1231004
C   C      0.0858100    0.4623100    0.1395400   -0.1201806
C   C      0.1015900    0.9994900    0.1229000    0.0318809
C   C      0.0791500    0.0353400    0.1322200   -0.1215461
C   C      0.0453600    0.0345500    0.1610000   -0.1130339
H   H      0.3929500    0.0548500    0.1309800    0.1056067
H   H      0.4526900    0.0598200    0.1747400    0.1112125
H   H      0.4032600    0.4265300    0.1318600    0.1093071
H   H      0.4618200    0.4316200    0.1776200    0.1157753
H   H      0.0417300    0.4339900    0.1789900    0.1121410
H   H      0.1007000    0.4353800    0.1340600    0.1037510
H   H      0.0884000    0.0629000    0.1199000    0.1087671
H   H      0.0313700    0.0616500    0.1680300    0.1151323
H   H      0.0647100    0.0348800    0.2555200    0.1165460
H   H      0.0696400    0.0943000    0.3000100    0.1092931
H   H      0.4413700    0.1051500    0.2995200    0.1077903
H   H      0.4364900    0.0448000    0.2565500    0.1122475
H   H      0.4333200    0.4668000    0.2638700    0.1162303
H   H      0.0611700    0.4551900    0.2570800    0.1123713
H   H      0.0580800    0.3971300    0.3034200    0.1049270
H   H      0.4303300    0.4106500    0.3131500    0.1091815
C   C      0.0092700    0.1462500    0.3217400   -0.0028332
C   C      0.5347000    0.1750500    0.3003900   -0.0784553
C   C      0.0333100    0.2170700    0.3107400    0.1650412
C   C      0.0063200    0.2304100    0.3450200    0.0546695
C   C      0.9819300    0.2016000    0.0343500   -0.1576203
C   C      0.9834000    0.1600800    0.0228700   -0.1410136
H   H      0.9609700    0.2109600    0.0574900    0.1161982
H   H      0.9638800    0.1403300    0.0383800    0.1172408
C   C      0.9967100    0.2723000    0.3496500    0.0300039
C   C      0.4641400    0.2878700    0.3240900   -0.1152365
C   C      0.4613800    0.3298000    0.3153300   -0.1214172
C   C      0.9909200    0.3574400    0.3318900    0.0276147
C   C      0.0213700    0.3418800    0.0274800   -0.1272771
C   C      0.0244200    0.2997800    0.0361300   -0.1262915
H   H      0.4450200    0.2685400    0.3073100    0.1151993
H   H      0.4402000    0.3389900    0.2924000    0.1071662
H   H      0.0437900    0.3605900    0.0394200    0.1067834
H   H      0.5522400    0.1658600    0.2739800    0.1108102
H   H      0.0493100    0.2890600    0.0530600    0.1180373
N   N      0.0562800    0.2429500    0.2856000   -0.7568452
H   H      0.0739200    0.2329100    0.2619300    0.2513507
H   H      0.0560500    0.2722100    0.2902200    0.2710270
C   C      0.3519600    0.9870000    0.1074000   -0.0000683
C   C      0.3385600    0.5144900    0.0741000   -0.0804114
C   C      0.2971600    0.0168000    0.0607200    0.1593342
C   C      0.2684000    0.9899600    0.0807500    0.0554595
C   C      0.2821400    0.9608400    0.1120600   -0.1517313
C   C      0.3231200    0.9594400    0.1251700   -0.1388906
H   H      0.2618100    0.9426500    0.1287000    0.1182078
H   H      0.3307700    0.9402700    0.1507500    0.1165160
C   C      0.2256800    0.9970500    0.0796300    0.0308495
C   C      0.1982200    0.4667700    0.0649400   -0.1304100
C   C      0.1565200    0.4692000    0.0757800   -0.1239483
C   C      0.1411900    0.0012600    0.1027200    0.0306028
C   C      0.1687300    0.0325300    0.1152300   -0.1253951
C   C      0.2102100    0.0305400    0.1038600   -0.1142811
H   H      0.2088500    0.4414000    0.0488200    0.1113054
H   H      0.1379300    0.4457800    0.0661800    0.1051231
H   H      0.1599600    0.0551400    0.1366700    0.1066236
H   H      0.3590400    0.5345600    0.0606700    0.1087910
H   H      0.2296000    0.0517000    0.1173000    0.1255092
N   N      0.2860100    0.0451200    0.0299300   -0.7615909
H   H      0.3059900    0.5631600    0.3496200    0.2529810
H   H      0.2582000    0.0469600    0.0189500    0.2685698
C   C      0.9937200    0.3972200    0.6459400    0.0323338
C   C      0.0314900    0.4123100    0.6302300   -0.1194877
C   C      0.0331500    0.4460000    0.6013100   -0.1219113
C   C      0.9972000    0.4646000    0.5846000    0.0253327
C   C      0.4601400    0.4528400    0.6054900   -0.1132730
C   C      0.4582900    0.4197000    0.6350700   -0.1215967
C   C      0.9979200    0.9985900    0.5498200   -0.0130756
C   C      0.0001800    0.0354800    0.5807500    0.0253685
C   C      0.4649300    0.0549200    0.5981700   -0.1224167
C   C      0.4677000    0.0900900    0.6247900   -0.1184535
C   C      0.0060700    0.1061900    0.6369800    0.0295182
C   C      0.0412600    0.0840800    0.6246100   -0.1234084
C   C      0.0382300    0.0491500    0.5977700   -0.1137096
C   C      0.0326800    0.9981300    0.5159000    0.0250973
C   C      0.4615500    0.4962100    0.5181500    0.0254366
C   C      0.4424800    0.0313500    0.5000400   -0.1223742
C   C      0.4076100    0.0284600    0.4729500   -0.1192681
C   C      0.3913900    0.4900900    0.4607700    0.0297118
C   C      0.4132200    0.4549600    0.4740500   -0.1197378
C   C      0.4477800    0.4580700    0.5014900   -0.1133943
C   C      0.0514000    0.4616400    0.5008500   -0.1230953
C   C      0.0858100    0.4623100    0.4728800   -0.1201877
C   C      0.1015900    0.9994900    0.4562300    0.0318769
C   C      0.0791500    0.0353400    0.4655600   -0.1215454
C   C      0.0453600    0.0345500    0.4943400   -0.1130462
H   H      0.3929500    0.0548500    0.4643100    0.1055999
H   H      0.4526900    0.0598200    0.5080700    0.1112198
H   H      0.4032600    0.4265300    0.4651900    0.1093073
H   H      0.4618200    0.4316200    0.5109500    0.1157826
H   H      0.0417300    0.4339900    0.5123200    0.1121437
H   H      0.1007000    0.4353800    0.4674000    0.1037549
H   H      0.0884000    0.0629000    0.4532400    0.1087648
H   H      0.0313700    0.0616500    0.5013700    0.1151336
H   H      0.0647100    0.0348800    0.5888500    0.1165494
H   H      0.0696400    0.0943000    0.6333400    0.1092948
H   H      0.4413700    0.1051500    0.6328600    0.1077840
H   H      0.4364900    0.0448000    0.5898900    0.1122524
H   H      0.4333200    0.4668000    0.5972000    0.1162333
H   H      0.0611700    0.4551900    0.5904200    0.1123825
H   H      0.0580800    0.3971300    0.6367600    0.1049201
H   H      0.4303300    0.4106500    0.6464900    0.1091829
C   C      0.0092700    0.1462500    0.6550800   -0.0028311
C   C      0.5347000    0.1750500    0.6337200   -0.0784624
C   C      0.0333100    0.2170700    0.6440800    0.1650674
C   C      0.0063200    0.2304100    0.6783500    0.0546776
C   C      0.9819300    0.2016000    0.3676900   -0.1576487
C   C      0.9834000    0.1600800    0.3562000   -0.1409804
H   H      0.9609700    0.2109600    0.3908200    0.1162143
H   H      0.9638800    0.1403300    0.3717200    0.1172254
C   C      0.9967100    0.2723000    0.6829800    0.0300079
C   C      0.4641400    0.2878700    0.6574200   -0.1152606
C   C      0.4613800    0.3298000    0.6486600   -0.1214199
C   C      0.9909200    0.3574400    0.6652300    0.0276179
C   C      0.0213700    0.3418800    0.3608200   -0.1272989
C   C      0.0244200    0.2997800    0.3694600   -0.1262917
H   H      0.4450200    0.2685400    0.6406500    0.1152105
H   H      0.4402000    0.3389900    0.6257300    0.1071711
H   H      0.0437900    0.3605900    0.3727500    0.1067959
H   H      0.5522400    0.1658600    0.6073100    0.1108056
H   H      0.0493100    0.2890600    0.3863900    0.1180368
N   N      0.0562800    0.2429500    0.6189400   -0.7567816
H   H      0.0739200    0.2329100    0.5952600    0.2512956
H   H      0.0560500    0.2722100    0.6235500    0.2710194
C   C      0.3519600    0.9870000    0.4407300   -0.0000723
C   C      0.3385600    0.5144900    0.4074300   -0.0804091
C   C      0.2971600    0.0168000    0.3940600    0.1593302
C   C      0.2684000    0.9899600    0.4140900    0.0554421
C   C      0.2821400    0.9608400    0.4453900   -0.1517261
C   C      0.3231200    0.9594400    0.4585000   -0.1388901
H   H      0.2618100    0.9426500    0.4620300    0.1182081
H   H      0.3307700    0.9402700    0.4840800    0.1165176
C   C      0.2256800    0.9970500    0.4129600    0.0308502
C   C      0.1982200    0.4667700    0.3982700   -0.1304037
C   C      0.1565200    0.4692000    0.4091100   -0.1239484
C   C      0.1411900    0.0012600    0.4360500    0.0306034
C   C      0.1687300    0.0325300    0.4485600   -0.1253809
C   C      0.2102100    0.0305400    0.4372000   -0.1143248
H   H      0.2088500    0.4414000    0.3821500    0.1113073
H   H      0.1379300    0.4457800    0.3995100    0.1051242
H   H      0.1599600    0.0551400    0.4700000    0.1066269
H   H      0.3590400    0.5345600    0.3940000    0.1087902
H   H      0.2296000    0.0517000    0.4506300    0.1255200
N   N      0.2860100    0.0451200    0.3632600   -0.7616225
H   H      0.3059900    0.5631600    0.6829600    0.2530114
H   H      0.2582000    0.0469600    0.3522900    0.2685991
C   C      0.9937200    0.3972200    0.9792700    0.0323391
C   C      0.0314900    0.4123100    0.9635700   -0.1194884
C   C      0.0331500    0.4460000    0.9346400   -0.1219315
C   C      0.9972000    0.4646000    0.9179400    0.0253490
C   C      0.4601400    0.4528400    0.9388200   -0.1132827
C   C      0.4582900    0.4197000    0.9684000   -0.1215999
C   C      0.9979200    0.9985900    0.8831500   -0.0130760
C   C      0.0001800    0.0354800    0.9140900    0.0253901
C   C      0.4649300    0.0549200    0.9315000   -0.1224329
C   C      0.4677000    0.0900900    0.9581300   -0.1184579
C   C      0.0060700    0.1061900    0.9703200    0.0295200
C   C      0.0412600    0.0840800    0.9579400   -0.1234138
C   C      0.0382300    0.0491500    0.9311000   -0.1137269
C   C      0.0326800    0.9981300    0.8492400    0.0250807
C   C      0.4615500    0.4962100    0.8514900    0.0254157
C   C      0.4424800    0.0313500    0.8333700   -0.1223607
C   C      0.4076100    0.0284600    0.8062800   -0.1192783
C   C      0.3913900    0.4900900    0.7941100    0.0297199
C   C      0.4132200    0.4549600    0.8073800   -0.1197428
C   C      0.4477800    0.4580700    0.8348200   -0.1133907
C   C      0.0514000    0.4616400    0.8341800   -0.1230719
C   C      0.0858100    0.4623100    0.8062100   -0.1201819
C   C      0.1015900    0.9994900    0.7895600    0.0318729
C   C      0.0791500    0.0353400    0.7988900   -0.1215457
C   C      0.0453600    0.0345500    0.8276700   -0.1130321
H   H      0.3929500    0.0548500    0.7976500    0.1056040
H   H      0.4526900    0.0598200    0.8414100    0.1112125
H   H      0.4032600    0.4265300    0.7985300    0.1093088
H   H      0.4618200    0.4316200    0.8442800    0.1157817
H   H      0.0417300    0.4339900    0.8456600    0.1121336
H   H      0.1007000    0.4353800    0.8007300    0.1037549
H   H      0.0884000    0.0629000    0.7865700    0.1087665
H   H      0.0313700    0.0616500    0.8347000    0.1151348
H   H      0.0647100    0.0348800    0.9221900    0.1165537
H   H      0.0696400    0.0943000    0.9666700    0.1092934
H   H      0.4413700    0.1051500    0.9661900    0.1077866
H   H      0.4364900    0.0448000    0.9232200    0.1122447
H   H      0.4333200    0.4668000    0.9305300    0.1162310
H   H      0.0611700    0.4551900    0.9237500    0.1123773
H   H      0.0580800    0.3971300    0.9700900    0.1049278
H   H      0.4303300    0.4106500    0.9798200    0.1091812
C   C      0.0092700    0.1462500    0.9884100   -0.0028371
C   C      0.5347000    0.1750500    0.9670600   -0.0784266
C   C      0.0333100    0.2170700    0.9774100    0.1650601
C   C      0.0063200    0.2304100    0.0116800    0.0546835
C   C      0.9819300    0.2016000    0.7010200   -0.1576188
C   C      0.9834000    0.1600800    0.6895400   -0.1410132
H   H      0.9609700    0.2109600    0.7241600    0.1161984
H   H      0.9638800    0.1403300    0.7050500    0.1172378
C   C      0.9967100    0.2723000    0.0163200    0.0299987
C   C      0.4641400    0.2878700    0.9907500   -0.1152605
C   C      0.4613800    0.3298000    0.9819900   -0.1214244
C   C      0.9909200    0.3574400    0.9985600    0.0276219
C   C      0.0213700    0.3418800    0.6941500   -0.1272921
C   C      0.0244200    0.2997800    0.7028000   -0.1263153
H   H      0.4450200    0.2685400    0.9739800    0.1152108
H   H      0.4402000    0.3389900    0.9590600    0.1071702
H   H      0.0437900    0.3605900    0.7060800    0.1067931
H   H      0.5522400    0.1658600    0.9406400    0.1107894
H   H      0.0493100    0.2890600    0.7197200    0.1180557
N   N      0.0562800    0.2429500    0.9522700   -0.7567816
H   H      0.0739200    0.2329100    0.9285900    0.2512937
H   H      0.0560500    0.2722100    0.9568800    0.2710224
C   C      0.3519600    0.9870000    0.7740700   -0.0000705
C   C      0.3385600    0.5144900    0.7407700   -0.0804153
C   C      0.2971600    0.0168000    0.7273900    0.1593131
C   C      0.2684000    0.9899600    0.7474200    0.0554471
C   C      0.2821400    0.9608400    0.7787300   -0.1517560
C   C      0.3231200    0.9594400    0.7918300   -0.1388462
H   H      0.2618100    0.9426500    0.7953600    0.1182208
H   H      0.3307700    0.9402700    0.8174200    0.1164950
C   C      0.2256800    0.9970500    0.7462900    0.0308500
C   C      0.1982200    0.4667700    0.7316100   -0.1303858
C   C      0.1565200    0.4692000    0.7424400   -0.1239574
C   C      0.1411900    0.0012600    0.7693800    0.0306042
C   C      0.1687300    0.0325300    0.7818900   -0.1253576
C   C      0.2102100    0.0305400    0.7705300   -0.1142977
H   H      0.2088500    0.4414000    0.7154800    0.1112951
H   H      0.1379300    0.4457800    0.7328400    0.1051235
H   H      0.1599600    0.0551400    0.8033400    0.1066052
H   H      0.3590400    0.5345600    0.7273400    0.1087916
H   H      0.2296000    0.0517000    0.7839700    0.1255001
N   N      0.2860100    0.0451200    0.6965900   -0.7616614
H   H      0.3059900    0.5631600    0.0162900    0.2529676
H   H      0.2582000    0.0469600    0.6856200    0.2686081
C   C      0.9937200    0.8972200    0.3126100    0.0323134
C   C      0.0314900    0.9123100    0.2969000   -0.1195401
C   C      0.0331500    0.9460000    0.2679800   -0.1216406
C   C      0.9972000    0.9646000    0.2512700    0.0253844
C   C      0.4601400    0.9528400    0.2721600   -0.1135629
C   C      0.4582900    0.9197000    0.3017300   -0.1215751
C   C      0.9979200    0.4986000    0.2164800   -0.0130693
C   C      0.0001800    0.5354800    0.2474200    0.0253223
C   C      0.4649300    0.5549200    0.2648300   -0.1227377
C   C      0.4677000    0.5900900    0.2914600   -0.1184174
C   C      0.0060700    0.6061900    0.3036500    0.0295234
C   C      0.0412600    0.5840800    0.2912800   -0.1234339
C   C      0.0382300    0.5491500    0.2644400   -0.1134140
C   C      0.0326800    0.4981300    0.1825700    0.0250665
C   C      0.4615500    0.9962100    0.1848200    0.0254420
C   C      0.4424800    0.5313500    0.1667000   -0.1223264
C   C      0.4076100    0.5284600    0.1396100   -0.1199038
C   C      0.3913900    0.9901000    0.1274400    0.0285989
C   C      0.4132200    0.9549600    0.1407200   -0.1198300
C   C      0.4477900    0.9580700    0.1681500   -0.1131586
C   C      0.0514000    0.9616400    0.1675200   -0.1231499
C   C      0.0858100    0.9623200    0.1395400   -0.1199567
C   C      0.1015900    0.4994900    0.1229000    0.0313487
C   C      0.0791500    0.5353400    0.1322200   -0.1208930
C   C      0.0453600    0.5345500    0.1610000   -0.1131207
H   H      0.3929500    0.5548500    0.1309800    0.1056906
H   H      0.4526900    0.5598200    0.1747400    0.1112971
H   H      0.4032600    0.9265300    0.1318600    0.1093803
H   H      0.4618200    0.9316200    0.1776200    0.1157680
H   H      0.0417300    0.9339800    0.1789900    0.1120735
H   H      0.1007000    0.9353800    0.1340600    0.1036584
H   H      0.0884000    0.5629000    0.1199000    0.1086864
H   H      0.0313700    0.5616500    0.1680300    0.1150720
H   H      0.0647100    0.5348800    0.2555200    0.1166100
H   H      0.0696400    0.5943000    0.3000100    0.1092621
H   H      0.4413700    0.6051500    0.2995200    0.1078134
H   H      0.4364900    0.5448000    0.2565500    0.1121993
H   H      0.4333200    0.9668000    0.2638700    0.1161578
H   H      0.0611700    0.9551800    0.2570800    0.1124415
H   H      0.0580800    0.8971300    0.3034200    0.1049055
H   H      0.4303300    0.9106500    0.3131500    0.1092201
C   C      0.0092700    0.6462500    0.3217400   -0.0028348
C   C      0.5347000    0.6750500    0.3003900   -0.0784559
C   C      0.0333100    0.7170700    0.3107400    0.1650407
C   C      0.0063200    0.7304100    0.3450200    0.0546718
C   C      0.9819300    0.7016000    0.0343500   -0.1576161
C   C      0.9834000    0.6600800    0.0228700   -0.1410170
H   H      0.9609700    0.7109600    0.0574900    0.1162012
H   H      0.9638800    0.6403300    0.0383800    0.1172368
C   C      0.9967100    0.7723000    0.3496500    0.0300232
C   C      0.4641400    0.7878700    0.3240900   -0.1152209
C   C      0.4613800    0.8297900    0.3153300   -0.1214205
C   C      0.9909200    0.8574400    0.3318900    0.0276051
C   C      0.0213700    0.8418800    0.0274800   -0.1272691
C   C      0.0244200    0.7997800    0.0361300   -0.1262887
H   H      0.4450100    0.7685500    0.3073100    0.1151919
H   H      0.4402000    0.8389900    0.2924000    0.1071591
H   H      0.0437900    0.8605900    0.0394200    0.1067840
H   H      0.5522400    0.6658600    0.2739800    0.1108059
H   H      0.0493100    0.7890600    0.0530600    0.1180320
N   N      0.0562800    0.7429500    0.2856000   -0.7568481
H   H      0.0739200    0.7329100    0.2619300    0.2513493
H   H      0.0560500    0.7722100    0.2902200    0.2710261
C   C      0.3519600    0.4870000    0.1074000   -0.0008229
C   C      0.3385500    0.0144900    0.0741000   -0.0808305
C   C      0.2971600    0.5168000    0.0607200    0.1586080
C   C      0.2684000    0.4899600    0.0807500    0.0559998
C   C      0.2821400    0.4608400    0.1120600   -0.1519044
C   C      0.3231200    0.4594400    0.1251700   -0.1387307
H   H      0.2618100    0.4426500    0.1287000    0.1181216
H   H      0.3307700    0.4402700    0.1507500    0.1165770
C   C      0.2256800    0.4970500    0.0796300    0.0303864
C   C      0.1982200    0.9667700    0.0649400   -0.1304312
C   C      0.1565200    0.9692000    0.0757800   -0.1247196
C   C      0.1411900    0.5012600    0.1027200    0.0298997
C   C      0.1687300    0.5325300    0.1152300   -0.1252550
C   C      0.2102100    0.5305400    0.1038600   -0.1135518
H   H      0.2088500    0.9414000    0.0488200    0.1113183
H   H      0.1379300    0.9457800    0.0661800    0.1052064
H   H      0.1599600    0.5551400    0.1366700    0.1065757
H   H      0.3590400    0.0345600    0.0606700    0.1087555
H   H      0.2296000    0.5517000    0.1173000    0.1253434
N   N      0.2860100    0.5451200    0.0299300   -0.7616339
H   H      0.3059900    0.0631600    0.3496200    0.2529516
H   H      0.2582000    0.5469600    0.0189500    0.2686511
C   C      0.9937200    0.8972200    0.6459400    0.0323115
C   C      0.0314900    0.9123100    0.6302300   -0.1195404
C   C      0.0331500    0.9460000    0.6013100   -0.1216497
C   C      0.9972000    0.9646000    0.5846000    0.0253851
C   C      0.4601400    0.9528400    0.6054900   -0.1135599
C   C      0.4582900    0.9197000    0.6350700   -0.1215682
C   C      0.9979200    0.4986000    0.5498200   -0.0130640
C   C      0.0001800    0.5354800    0.5807500    0.0253120
C   C      0.4649300    0.5549200    0.5981700   -0.1227184
C   C      0.4677000    0.5900900    0.6247900   -0.1184157
C   C      0.0060700    0.6061900    0.6369800    0.0295216
C   C      0.0412600    0.5840800    0.6246100   -0.1234334
C   C      0.0382300    0.5491500    0.5977700   -0.1134196
C   C      0.0326800    0.4981300    0.5159000    0.0250775
C   C      0.4615500    0.9962100    0.5181500    0.0254609
C   C      0.4424800    0.5313500    0.5000400   -0.1223400
C   C      0.4076100    0.5284600    0.4729500   -0.1198947
C   C      0.3913900    0.9901000    0.4607700    0.0285926
C   C      0.4132200    0.9549600    0.4740500   -0.1198284
C   C      0.4477900    0.9580700    0.5014900   -0.1131804
C   C      0.0514000    0.9616400    0.5008500   -0.1231448
C   C      0.0858100    0.9623200    0.4728800   -0.1199637
C   C      0.1015900    0.4994900    0.4562300    0.0313449
C   C      0.0791500    0.5353400    0.4655600   -0.1208924
C   C      0.0453600    0.5345500    0.4943400   -0.1131333
H   H      0.3929500    0.5548500    0.4643100    0.1056837
H   H      0.4526900    0.5598200    0.5080700    0.1113044
H   H      0.4032600    0.9265300    0.4651900    0.1093805
H   H      0.4618200    0.9316200    0.5109500    0.1157753
H   H      0.0417300    0.9339800    0.5123200    0.1120763
H   H      0.1007000    0.9353800    0.4674000    0.1036623
H   H      0.0884000    0.5629000    0.4532400    0.1086841
H   H      0.0313700    0.5616500    0.5013700    0.1150734
H   H      0.0647100    0.5348800    0.5888500    0.1166134
H   H      0.0696400    0.5943000    0.6333400    0.1092638
H   H      0.4413700    0.6051500    0.6328600    0.1078071
H   H      0.4364900    0.5448000    0.5898900    0.1122042
H   H      0.4333200    0.9668000    0.5972000    0.1161608
H   H      0.0611700    0.9551800    0.5904200    0.1124527
H   H      0.0580800    0.8971300    0.6367600    0.1048986
H   H      0.4303300    0.9106500    0.6464900    0.1092215
C   C      0.0092700    0.6462500    0.6550800   -0.0028327
C   C      0.5347000    0.6750500    0.6337200   -0.0784629
C   C      0.0333100    0.7170700    0.6440800    0.1650669
C   C      0.0063200    0.7304100    0.6783500    0.0546799
C   C      0.9819300    0.7016000    0.3676900   -0.1576446
C   C      0.9834000    0.6600800    0.3562000   -0.1409837
H   H      0.9609700    0.7109600    0.3908200    0.1162174
H   H      0.9638800    0.6403300    0.3717200    0.1172213
C   C      0.9967100    0.7723000    0.6829800    0.0300272
C   C      0.4641400    0.7878700    0.6574200   -0.1152451
C   C      0.4613800    0.8297900    0.6486600   -0.1214232
C   C      0.9909200    0.8574400    0.6652300    0.0276084
C   C      0.0213700    0.8418800    0.3608200   -0.1272909
C   C      0.0244200    0.7997800    0.3694600   -0.1262888
H   H      0.4450100    0.7685500    0.6406500    0.1152032
H   H      0.4402000    0.8389900    0.6257300    0.1071640
H   H      0.0437900    0.8605900    0.3727500    0.1067965
H   H      0.5522400    0.6658600    0.6073100    0.1108014
H   H      0.0493100    0.7890600    0.3863900    0.1180315
N   N      0.0562800    0.7429500    0.6189400   -0.7567846
H   H      0.0739200    0.7329100    0.5952600    0.2512942
H   H      0.0560500    0.7722100    0.6235500    0.2710184
C   C      0.3519600    0.4870000    0.4407300   -0.0008270
C   C      0.3385500    0.0144900    0.4074300   -0.0808282
C   C      0.2971600    0.5168000    0.3940600    0.1586041
C   C      0.2684000    0.4899600    0.4140900    0.0559824
C   C      0.2821400    0.4608400    0.4453900   -0.1518992
C   C      0.3231200    0.4594400    0.4585000   -0.1387301
H   H      0.2618100    0.4426500    0.4620300    0.1181219
H   H      0.3307700    0.4402700    0.4840800    0.1165787
C   C      0.2256800    0.4970500    0.4129600    0.0303869
C   C      0.1982200    0.9667700    0.3982700   -0.1304250
C   C      0.1565200    0.9692000    0.4091100   -0.1247197
C   C      0.1411900    0.5012600    0.4360500    0.0299003
C   C      0.1687300    0.5325300    0.4485600   -0.1252407
C   C      0.2102100    0.5305400    0.4372000   -0.1135955
H   H      0.2088500    0.9414000    0.3821500    0.1113202
H   H      0.1379300    0.9457800    0.3995100    0.1052075
H   H      0.1599600    0.5551400    0.4700000    0.1065789
H   H      0.3590400    0.0345600    0.3940000    0.1087547
H   H      0.2296000    0.5517000    0.4506300    0.1253541
N   N      0.2860100    0.5451200    0.3632600   -0.7616654
H   H      0.3059900    0.0631600    0.6829600    0.2529820
H   H      0.2582000    0.5469600    0.3522900    0.2686804
C   C      0.9937200    0.8972200    0.9792700    0.0323168
C   C      0.0314900    0.9123100    0.9635700   -0.1195410
C   C      0.0331500    0.9460000    0.9346400   -0.1216699
C   C      0.9972000    0.9646000    0.9179400    0.0254014
C   C      0.4601400    0.9528400    0.9388200   -0.1135695
C   C      0.4582900    0.9197000    0.9684000   -0.1215714
C   C      0.9979200    0.4986000    0.8831500   -0.0130643
C   C      0.0001800    0.5354800    0.9140900    0.0253335
C   C      0.4649300    0.5549200    0.9315000   -0.1227346
C   C      0.4677000    0.5900900    0.9581300   -0.1184201
C   C      0.0060700    0.6061900    0.9703200    0.0295234
C   C      0.0412600    0.5840800    0.9579400   -0.1234389
C   C      0.0382300    0.5491500    0.9311000   -0.1134369
C   C      0.0326800    0.4981300    0.8492400    0.0250607
C   C      0.4615500    0.9962100    0.8514900    0.0254396
C   C      0.4424800    0.5313500    0.8333700   -0.1223269
C   C      0.4076100    0.5284600    0.8062800   -0.1199053
C   C      0.3913900    0.9901000    0.7941100    0.0286004
C   C      0.4132200    0.9549600    0.8073800   -0.1198334
C   C      0.4477900    0.9580700    0.8348200   -0.1131768
C   C      0.0514000    0.9616400    0.8341800   -0.1231216
C   C      0.0858100    0.9623200    0.8062100   -0.1199578
C   C      0.1015900    0.4994900    0.7895600    0.0313408
C   C      0.0791500    0.5353400    0.7988900   -0.1208925
C   C      0.0453600    0.5345500    0.8276700   -0.1131190
H   H      0.3929500    0.5548500    0.7976500    0.1056879
H   H      0.4526900    0.5598200    0.8414100    0.1112972
H   H      0.4032600    0.9265300    0.7985300    0.1093820
H   H      0.4618200    0.9316200    0.8442800    0.1157744
H   H      0.0417300    0.9339800    0.8456600    0.1120661
H   H      0.1007000    0.9353800    0.8007300    0.1036623
H   H      0.0884000    0.5629000    0.7865700    0.1086858
H   H      0.0313700    0.5616500    0.8347000    0.1150746
H   H      0.0647100    0.5348800    0.9221900    0.1166177
H   H      0.0696400    0.5943000    0.9666700    0.1092624
H   H      0.4413700    0.6051500    0.9661900    0.1078097
H   H      0.4364900    0.5448000    0.9232200    0.1121964
H   H      0.4333200    0.9668000    0.9305300    0.1161584
H   H      0.0611700    0.9551800    0.9237500    0.1124475
H   H      0.0580800    0.8971300    0.9700900    0.1049063
H   H      0.4303300    0.9106500    0.9798200    0.1092198
C   C      0.0092700    0.6462500    0.9884100   -0.0028387
C   C      0.5347000    0.6750500    0.9670600   -0.0784272
C   C      0.0333100    0.7170700    0.9774100    0.1650596
C   C      0.0063200    0.7304100    0.0116800    0.0546858
C   C      0.9819300    0.7016000    0.7010200   -0.1576146
C   C      0.9834000    0.6600800    0.6895400   -0.1410166
H   H      0.9609700    0.7109600    0.7241600    0.1162014
H   H      0.9638800    0.6403300    0.7050500    0.1172338
C   C      0.9967100    0.7723000    0.0163200    0.0300179
C   C      0.4641400    0.7878700    0.9907500   -0.1152449
C   C      0.4613800    0.8297900    0.9819900   -0.1214277
C   C      0.9909200    0.8574400    0.9985600    0.0276124
C   C      0.0213700    0.8418800    0.6941500   -0.1272841
C   C      0.0244200    0.7997800    0.7028000   -0.1263125
H   H      0.4450100    0.7685500    0.9739800    0.1152035
H   H      0.4402000    0.8389900    0.9590600    0.1071631
H   H      0.0437900    0.8605900    0.7060800    0.1067937
H   H      0.5522400    0.6658600    0.9406400    0.1107851
H   H      0.0493100    0.7890600    0.7197200    0.1180504
N   N      0.0562800    0.7429500    0.9522700   -0.7567846
H   H      0.0739200    0.7329100    0.9285900    0.2512923
H   H      0.0560500    0.7722100    0.9568800    0.2710214
C   C      0.3519600    0.4870000    0.7740700   -0.0008250
C   C      0.3385500    0.0144900    0.7407700   -0.0808343
C   C      0.2971600    0.5168000    0.7273900    0.1585869
C   C      0.2684000    0.4899600    0.7474200    0.0559873
C   C      0.2821400    0.4608400    0.7787300   -0.1519290
C   C      0.3231200    0.4594400    0.7918300   -0.1386864
H   H      0.2618100    0.4426500    0.7953600    0.1181345
H   H      0.3307700    0.4402700    0.8174200    0.1165561
C   C      0.2256800    0.4970500    0.7462900    0.0303870
C   C      0.1982200    0.9667700    0.7316100   -0.1304071
C   C      0.1565200    0.9692000    0.7424400   -0.1247287
C   C      0.1411900    0.5012600    0.7693800    0.0299011
C   C      0.1687300    0.5325300    0.7818900   -0.1252175
C   C      0.2102100    0.5305400    0.7705300   -0.1135685
H   H      0.2088500    0.9414000    0.7154800    0.1113079
H   H      0.1379300    0.9457800    0.7328400    0.1052069
H   H      0.1599600    0.5551400    0.8033400    0.1065573
H   H      0.3590400    0.0345600    0.7273400    0.1087561
H   H      0.2296000    0.5517000    0.7839700    0.1253343
N   N      0.2860100    0.5451200    0.6965900   -0.7617043
H   H      0.3059900    0.0631600    0.0162900    0.2529382
H   H      0.2582000    0.5469600    0.6856200    0.2686894
C   C      0.4937200    0.3972200    0.3126100    0.0314040
C   C      0.5314900    0.4123100    0.2969000   -0.1188124
C   C      0.5331600    0.4460000    0.2679800   -0.1218779
C   C      0.4972000    0.4646000    0.2512700    0.0253020
C   C      0.9601400    0.4528400    0.2721600   -0.1135172
C   C      0.9582900    0.4197000    0.3017300   -0.1215402
C   C      0.4979200    0.9985900    0.2164800   -0.0129687
C   C      0.5001800    0.0354800    0.2474200    0.0253851
C   C      0.9649300    0.0549200    0.2648300   -0.1224046
C   C      0.9677000    0.0900900    0.2914600   -0.1191035
C   C      0.5060600    0.1061900    0.3036500    0.0286079
C   C      0.5412600    0.0840800    0.2912800   -0.1234975
C   C      0.5382300    0.0491500    0.2644400   -0.1134420
C   C      0.5326800    0.9981300    0.1825700    0.0251609
C   C      0.9615500    0.4962100    0.1848200    0.0253404
C   C      0.9424800    0.0313500    0.1667000   -0.1226552
C   C      0.9076100    0.0284600    0.1396100   -0.1192618
C   C      0.8913900    0.4900900    0.1274400    0.0297149
C   C      0.9132200    0.4549600    0.1407200   -0.1197790
C   C      0.9477900    0.4580700    0.1681500   -0.1131140
C   C      0.5514100    0.4616400    0.1675200   -0.1228018
C   C      0.5858100    0.4623100    0.1395400   -0.1201868
C   C      0.6015900    0.9994900    0.1229000    0.0318840
C   C      0.5791500    0.0353400    0.1322200   -0.1215077
C   C      0.5453600    0.0345500    0.1610000   -0.1133315
H   H      0.8929600    0.0548500    0.1309800    0.1056464
H   H      0.9526900    0.0598200    0.1747400    0.1112003
H   H      0.9032600    0.4265300    0.1318600    0.1092740
H   H      0.9618200    0.4316200    0.1776200    0.1158892
H   H      0.5417300    0.4339900    0.1789900    0.1121688
H   H      0.6007100    0.4353800    0.1340600    0.1037180
H   H      0.5884000    0.0629000    0.1199000    0.1088029
H   H      0.5313700    0.0616500    0.1680300    0.1149969
H   H      0.5647200    0.0348800    0.2555200    0.1165122
H   H      0.5696400    0.0943000    0.3000100    0.1093595
H   H      0.9413700    0.1051500    0.2995200    0.1079212
H   H      0.9364900    0.0448000    0.2565500    0.1123354
H   H      0.9333200    0.4668000    0.2638700    0.1162317
H   H      0.5611700    0.4551900    0.2570800    0.1123050
H   H      0.5580800    0.3971300    0.3034200    0.1048220
H   H      0.9303300    0.4106500    0.3131500    0.1091208
C   C      0.5092700    0.1462500    0.3217400   -0.0017712
C   C      0.0347000    0.1750500    0.3003900   -0.0783534
C   C      0.5333100    0.2170700    0.3107400    0.1647116
C   C      0.5063200    0.2304100    0.3450200    0.0539262
C   C      0.4819300    0.2016000    0.0343500   -0.1573447
C   C      0.4834000    0.1600800    0.0228700   -0.1410392
H   H      0.4609700    0.2109600    0.0574900    0.1161968
H   H      0.4638800    0.1403300    0.0383800    0.1171990
C   C      0.4967100    0.2723000    0.3496500    0.0296762
C   C      0.9641500    0.2878700    0.3240900   -0.1149426
C   C      0.9613900    0.3298000    0.3153300   -0.1214282
C   C      0.4909300    0.3574400    0.3318900    0.0286027
C   C      0.5213700    0.3418800    0.0274800   -0.1279544
C   C      0.5244200    0.2997800    0.0361300   -0.1258495
H   H      0.9450200    0.2685400    0.3073100    0.1151529
H   H      0.9402000    0.3389900    0.2924000    0.1071870
H   H      0.5437900    0.3605900    0.0394200    0.1068309
H   H      0.0522400    0.1658600    0.2739800    0.1108647
H   H      0.5493100    0.2890600    0.0530600    0.1180107
N   N      0.5562800    0.2429500    0.2856000   -0.7566675
H   H      0.5739300    0.2329100    0.2619300    0.2513090
H   H      0.5560500    0.2722100    0.2902200    0.2710658
C   C      0.8519600    0.9870000    0.1074000   -0.0000462
C   C      0.8385600    0.5144900    0.0741000   -0.0803829
C   C      0.7971500    0.0168000    0.0607200    0.1593525
C   C      0.7684000    0.9899600    0.0807500    0.0554577
C   C      0.7821400    0.9608400    0.1120600   -0.1517284
C   C      0.8231200    0.9594400    0.1251700   -0.1388866
H   H      0.7618100    0.9426500    0.1287000    0.1182094
H   H      0.8307700    0.9402700    0.1507500    0.1165142
C   C      0.7256800    0.9970500    0.0796300    0.0308584
C   C      0.6982200    0.4667700    0.0649400   -0.1304252
C   C      0.6565100    0.4692000    0.0757800   -0.1239868
C   C      0.6411900    0.0012600    0.1027200    0.0306045
C   C      0.6687300    0.0325300    0.1152300   -0.1253945
C   C      0.7102100    0.0305400    0.1038600   -0.1142813
H   H      0.7088400    0.4414000    0.0488200    0.1113090
H   H      0.6379300    0.4457800    0.0661800    0.1051410
H   H      0.6599600    0.0551400    0.1366700    0.1066237
H   H      0.8590500    0.5345600    0.0606700    0.1087619
H   H      0.7296000    0.0517000    0.1173000    0.1255082
N   N      0.7860100    0.0451200    0.0299300   -0.7615930
H   H      0.8059900    0.5631600    0.3496200    0.2529855
H   H      0.7582000    0.0469600    0.0189500    0.2685659
C   C      0.4937200    0.3972200    0.6459400    0.0314021
C   C      0.5314900    0.4123100    0.6302300   -0.1188128
C   C      0.5331600    0.4460000    0.6013100   -0.1218870
C   C      0.4972000    0.4646000    0.5846000    0.0253027
C   C      0.9601400    0.4528400    0.6054900   -0.1135141
C   C      0.9582900    0.4197000    0.6350700   -0.1215334
C   C      0.4979200    0.9985900    0.5498200   -0.0129633
C   C      0.5001800    0.0354800    0.5807500    0.0253748
C   C      0.9649300    0.0549200    0.5981700   -0.1223853
C   C      0.9677000    0.0900900    0.6247900   -0.1191019
C   C      0.5060600    0.1061900    0.6369800    0.0286060
C   C      0.5412600    0.0840800    0.6246100   -0.1234970
C   C      0.5382300    0.0491500    0.5977700   -0.1134475
C   C      0.5326800    0.9981300    0.5159000    0.0251717
C   C      0.9615500    0.4962100    0.5181500    0.0253589
C   C      0.9424800    0.0313500    0.5000400   -0.1226690
C   C      0.9076100    0.0284600    0.4729500   -0.1192529
C   C      0.8913900    0.4900900    0.4607700    0.0297084
C   C      0.9132200    0.4549600    0.4740500   -0.1197775
C   C      0.9477900    0.4580700    0.5014900   -0.1131357
C   C      0.5514100    0.4616400    0.5008500   -0.1227967
C   C      0.5858100    0.4623100    0.4728800   -0.1201939
C   C      0.6015900    0.9994900    0.4562300    0.0318801
C   C      0.5791500    0.0353400    0.4655600   -0.1215070
C   C      0.5453600    0.0345500    0.4943400   -0.1133438
H   H      0.8929600    0.0548500    0.4643100    0.1056395
H   H      0.9526900    0.0598200    0.5080700    0.1112075
H   H      0.9032600    0.4265300    0.4651900    0.1092742
H   H      0.9618200    0.4316200    0.5109500    0.1158965
H   H      0.5417300    0.4339900    0.5123200    0.1121715
H   H      0.6007100    0.4353800    0.4674000    0.1037219
H   H      0.5884000    0.0629000    0.4532400    0.1088005
H   H      0.5313700    0.0616500    0.5013700    0.1149983
H   H      0.5647200    0.0348800    0.5888500    0.1165157
H   H      0.5696400    0.0943000    0.6333400    0.1093612
H   H      0.9413700    0.1051500    0.6328600    0.1079148
H   H      0.9364900    0.0448000    0.5898900    0.1123403
H   H      0.9333200    0.4668000    0.5972000    0.1162347
H   H      0.5611700    0.4551900    0.5904200    0.1123161
H   H      0.5580800    0.3971300    0.6367600    0.1048151
H   H      0.9303300    0.4106500    0.6464900    0.1091222
C   C      0.5092700    0.1462500    0.6550800   -0.0017689
C   C      0.0347000    0.1750500    0.6337200   -0.0783603
C   C      0.5333100    0.2170700    0.6440800    0.1647378
C   C      0.5063200    0.2304100    0.6783500    0.0539341
C   C      0.4819300    0.2016000    0.3676900   -0.1573730
C   C      0.4834000    0.1600800    0.3562000   -0.1410061
H   H      0.4609700    0.2109600    0.3908200    0.1162130
H   H      0.4638800    0.1403300    0.3717200    0.1171836
C   C      0.4967100    0.2723000    0.6829800    0.0296802
C   C      0.9641500    0.2878700    0.6574200   -0.1149668
C   C      0.9613900    0.3298000    0.6486600   -0.1214309
C   C      0.4909300    0.3574400    0.6652300    0.0286061
C   C      0.5213700    0.3418800    0.3608200   -0.1279761
C   C      0.5244200    0.2997800    0.3694600   -0.1258497
H   H      0.9450200    0.2685400    0.6406500    0.1151642
H   H      0.9402000    0.3389900    0.6257300    0.1071919
H   H      0.5437900    0.3605900    0.3727500    0.1068433
H   H      0.0522400    0.1658600    0.6073100    0.1108602
H   H      0.5493100    0.2890600    0.3863900    0.1180102
N   N      0.5562800    0.2429500    0.6189400   -0.7566039
H   H      0.5739300    0.2329100    0.5952600    0.2512539
H   H      0.5560500    0.2722100    0.6235500    0.2710582
C   C      0.8519600    0.9870000    0.4407300   -0.0000502
C   C      0.8385600    0.5144900    0.4074300   -0.0803805
C   C      0.7971500    0.0168000    0.3940600    0.1593485
C   C      0.7684000    0.9899600    0.4140900    0.0554404
C   C      0.7821400    0.9608400    0.4453900   -0.1517231
C   C      0.8231200    0.9594400    0.4585000   -0.1388860
H   H      0.7618100    0.9426500    0.4620300    0.1182097
H   H      0.8307700    0.9402700    0.4840800    0.1165159
C   C      0.7256800    0.9970500    0.4129600    0.0308592
C   C      0.6982200    0.4667700    0.3982700   -0.1304189
C   C      0.6565100    0.4692000    0.4091100   -0.1239869
C   C      0.6411900    0.0012600    0.4360500    0.0306051
C   C      0.6687300    0.0325300    0.4485600   -0.1253802
C   C      0.7102100    0.0305400    0.4372000   -0.1143250
H   H      0.7088400    0.4414000    0.3821500    0.1113109
H   H      0.6379300    0.4457800    0.3995100    0.1051421
H   H      0.6599600    0.0551400    0.4700000    0.1066270
H   H      0.8590500    0.5345600    0.3940000    0.1087611
H   H      0.7296000    0.0517000    0.4506300    0.1255190
N   N      0.7860100    0.0451200    0.3632600   -0.7616245
H   H      0.8059900    0.5631600    0.6829600    0.2530159
H   H      0.7582000    0.0469600    0.3522900    0.2685952
C   C      0.4937200    0.3972200    0.9792700    0.0314074
C   C      0.5314900    0.4123100    0.9635700   -0.1188134
C   C      0.5331600    0.4460000    0.9346400   -0.1219073
C   C      0.4972000    0.4646000    0.9179400    0.0253192
C   C      0.9601400    0.4528400    0.9388200   -0.1135237
C   C      0.9582900    0.4197000    0.9684000   -0.1215365
C   C      0.4979200    0.9985900    0.8831500   -0.0129639
C   C      0.5001800    0.0354800    0.9140900    0.0253965
C   C      0.9649300    0.0549200    0.9315000   -0.1224015
C   C      0.9677000    0.0900900    0.9581300   -0.1191064
C   C      0.5060600    0.1061900    0.9703200    0.0286078
C   C      0.5412600    0.0840800    0.9579400   -0.1235024
C   C      0.5382300    0.0491500    0.9311000   -0.1134649
C   C      0.5326800    0.9981300    0.8492400    0.0251552
C   C      0.9615500    0.4962100    0.8514900    0.0253379
C   C      0.9424800    0.0313500    0.8333700   -0.1226555
C   C      0.9076100    0.0284600    0.8062800   -0.1192631
C   C      0.8913900    0.4900900    0.7941100    0.0297165
C   C      0.9132200    0.4549600    0.8073800   -0.1197825
C   C      0.9477900    0.4580700    0.8348200   -0.1131321
C   C      0.5514100    0.4616400    0.8341800   -0.1227733
C   C      0.5858100    0.4623100    0.8062100   -0.1201881
C   C      0.6015900    0.9994900    0.7895600    0.0318760
C   C      0.5791500    0.0353400    0.7988900   -0.1215073
C   C      0.5453600    0.0345500    0.8276700   -0.1133297
H   H      0.8929600    0.0548500    0.7976500    0.1056437
H   H      0.9526900    0.0598200    0.8414100    0.1112003
H   H      0.9032600    0.4265300    0.7985300    0.1092757
H   H      0.9618200    0.4316200    0.8442800    0.1158956
H   H      0.5417300    0.4339900    0.8456600    0.1121614
H   H      0.6007100    0.4353800    0.8007300    0.1037219
H   H      0.5884000    0.0629000    0.7865700    0.1088022
H   H      0.5313700    0.0616500    0.8347000    0.1149995
H   H      0.5647200    0.0348800    0.9221900    0.1165200
H   H      0.5696400    0.0943000    0.9666700    0.1093598
H   H      0.9413700    0.1051500    0.9661900    0.1079174
H   H      0.9364900    0.0448000    0.9232200    0.1123326
H   H      0.9333200    0.4668000    0.9305300    0.1162323
H   H      0.5611700    0.4551900    0.9237500    0.1123110
H   H      0.5580800    0.3971300    0.9700900    0.1048228
H   H      0.9303300    0.4106500    0.9798200    0.1091206
C   C      0.5092700    0.1462500    0.9884100   -0.0017750
C   C      0.0347000    0.1750500    0.9670600   -0.0783247
C   C      0.5333100    0.2170700    0.9774100    0.1647306
C   C      0.5063200    0.2304100    0.0116800    0.0539402
C   C      0.4819300    0.2016000    0.7010200   -0.1573431
C   C      0.4834000    0.1600800    0.6895400   -0.1410389
H   H      0.4609700    0.2109600    0.7241600    0.1161970
H   H      0.4638800    0.1403300    0.7050500    0.1171961
C   C      0.4967100    0.2723000    0.0163200    0.0296707
C   C      0.9641500    0.2878700    0.9907500   -0.1149667
C   C      0.9613900    0.3298000    0.9819900   -0.1214353
C   C      0.4909300    0.3574400    0.9985600    0.0286100
C   C      0.5213700    0.3418800    0.6941500   -0.1279694
C   C      0.5244200    0.2997800    0.7028000   -0.1258733
H   H      0.9450200    0.2685400    0.9739800    0.1151645
H   H      0.9402000    0.3389900    0.9590600    0.1071911
H   H      0.5437900    0.3605900    0.7060800    0.1068406
H   H      0.0522400    0.1658600    0.9406400    0.1108440
H   H      0.5493100    0.2890600    0.7197200    0.1180291
N   N      0.5562800    0.2429500    0.9522700   -0.7566039
H   H      0.5739300    0.2329100    0.9285900    0.2512521
H   H      0.5560500    0.2722100    0.9568800    0.2710612
C   C      0.8519600    0.9870000    0.7740700   -0.0000484
C   C      0.8385600    0.5144900    0.7407700   -0.0803868
C   C      0.7971500    0.0168000    0.7273900    0.1593314
C   C      0.7684000    0.9899600    0.7474200    0.0554453
C   C      0.7821400    0.9608400    0.7787300   -0.1517531
C   C      0.8231200    0.9594400    0.7918300   -0.1388422
H   H      0.7618100    0.9426500    0.7953600    0.1182224
H   H      0.8307700    0.9402700    0.8174200    0.1164932
C   C      0.7256800    0.9970500    0.7462900    0.0308590
C   C      0.6982200    0.4667700    0.7316100   -0.1304010
C   C      0.6565100    0.4692000    0.7424400   -0.1239959
C   C      0.6411900    0.0012600    0.7693800    0.0306058
C   C      0.6687300    0.0325300    0.7818900   -0.1253570
C   C      0.7102100    0.0305400    0.7705300   -0.1142980
H   H      0.7088400    0.4414000    0.7154800    0.1112987
H   H      0.6379300    0.4457800    0.7328400    0.1051415
H   H      0.6599600    0.0551400    0.8033400    0.1066053
H   H      0.8590500    0.5345600    0.7273400    0.1087626
H   H      0.7296000    0.0517000    0.7839700    0.1254991
N   N      0.7860100    0.0451200    0.6965900   -0.7616634
H   H      0.8059900    0.5631600    0.0162900    0.2529721
H   H      0.7582000    0.0469600    0.6856200    0.2686042
C   C      0.4937200    0.8972200    0.3126100    0.0313989
C   C      0.5314900    0.9123100    0.2969000   -0.1188662
C   C      0.5331600    0.9460000    0.2679800   -0.1216136
C   C      0.4972000    0.9646000    0.2512700    0.0253522
C   C      0.9601400    0.9528400    0.2721600   -0.1138254
C   C      0.9583000    0.9197000    0.3017300   -0.1214399
C   C      0.4979200    0.4986000    0.2164800   -0.0129480
C   C      0.5001800    0.5354800    0.2474200    0.0253357
C   C      0.9649300    0.5549200    0.2648300   -0.1227035
C   C      0.9677000    0.5900900    0.2914600   -0.1190652
C   C      0.5060600    0.6061900    0.3036500    0.0286107
C   C      0.5412600    0.5840800    0.2912800   -0.1235220
C   C      0.5382300    0.5491500    0.2644400   -0.1131551
C   C      0.5326800    0.4981300    0.1825700    0.0251378
C   C      0.9615500    0.9962100    0.1848200    0.0253692
C   C      0.9424800    0.5313500    0.1667000   -0.1226087
C   C      0.9076100    0.5284600    0.1396100   -0.1198741
C   C      0.8913900    0.9901000    0.1274400    0.0286085
C   C      0.9132200    0.9549600    0.1407200   -0.1198655
C   C      0.9477900    0.9580700    0.1681500   -0.1128949
C   C      0.5514100    0.9616400    0.1675200   -0.1228530
C   C      0.5858100    0.9623200    0.1395400   -0.1199831
C   C      0.6015900    0.4994900    0.1229000    0.0313525
C   C      0.5791500    0.5353400    0.1322200   -0.1208558
C   C      0.5453600    0.5345500    0.1610000   -0.1134233
H   H      0.8929500    0.5548500    0.1309800    0.1057161
H   H      0.9526900    0.5598200    0.1747400    0.1112861
H   H      0.9032600    0.9265300    0.1318600    0.1093491
H   H      0.9618200    0.9316200    0.1776200    0.1158731
H   H      0.5417300    0.9339800    0.1789900    0.1121021
H   H      0.6007000    0.9353800    0.1340600    0.1036376
H   H      0.5884000    0.5629000    0.1199000    0.1087236
H   H      0.5313700    0.5616500    0.1680300    0.1149371
H   H      0.5647200    0.5348800    0.2555200    0.1165756
H   H      0.5696400    0.5943000    0.3000100    0.1093305
H   H      0.9413700    0.6051500    0.2995200    0.1079443
H   H      0.9364900    0.5448000    0.2565500    0.1122860
H   H      0.9333200    0.9668000    0.2638700    0.1161563
H   H      0.5611700    0.9551800    0.2570800    0.1123761
H   H      0.5580800    0.8971300    0.3034200    0.1047995
H   H      0.9303300    0.9106500    0.3131500    0.1091309
C   C      0.5092700    0.6462500    0.3217400   -0.0017703
C   C      0.0347000    0.6750500    0.3003900   -0.0783525
C   C      0.5333100    0.7170700    0.3107400    0.1647034
C   C      0.5063200    0.7304100    0.3450200    0.0539408
C   C      0.4819300    0.7016000    0.0343500   -0.1573415
C   C      0.4834000    0.6600800    0.0228700   -0.1410420
H   H      0.4609700    0.7109600    0.0574900    0.1161948
H   H      0.4638800    0.6403300    0.0383800    0.1171942
C   C      0.4967100    0.7723000    0.3496500    0.0296899
C   C      0.9641400    0.7878700    0.3240900   -0.1150157
C   C      0.9613900    0.8297900    0.3153300   -0.1214488
C   C      0.4909300    0.8574400    0.3318900    0.0285971
C   C      0.5213700    0.8418800    0.0274800   -0.1279544
C   C      0.5244200    0.7997800    0.0361300   -0.1258520
H   H      0.9450200    0.7685500    0.3073100    0.1151991
H   H      0.9402100    0.8389900    0.2924000    0.1072118
H   H      0.5437900    0.8605900    0.0394200    0.1068327
H   H      0.0522400    0.6658600    0.2739800    0.1108615
H   H      0.5493100    0.7890600    0.0530600    0.1180102
N   N      0.5562800    0.7429500    0.2856000   -0.7567227
H   H      0.5739200    0.7329100    0.2619300    0.2513453
H   H      0.5560500    0.7722100    0.2902200    0.2710684
C   C      0.8519600    0.4870000    0.1074000   -0.0008273
C   C      0.8385600    0.0144900    0.0741000   -0.0808779
C   C      0.7971600    0.5168000    0.0607200    0.1586174
C   C      0.7684000    0.4899600    0.0807500    0.0560000
C   C      0.7821400    0.4608400    0.1120600   -0.1519048
C   C      0.8231200    0.4594400    0.1251700   -0.1387321
H   H      0.7618100    0.4426500    0.1287000    0.1181211
H   H      0.8307700    0.4402700    0.1507500    0.1165777
C   C      0.7256800    0.4970500    0.0796300    0.0303905
C   C      0.6982300    0.9667700    0.0649400   -0.1304542
C   C      0.6565200    0.9692000    0.0757800   -0.1247336
C   C      0.6411900    0.5012600    0.1027200    0.0299116
C   C      0.6687300    0.5325300    0.1152300   -0.1252537
C   C      0.7102100    0.5305400    0.1038600   -0.1135515
H   H      0.7088400    0.9414000    0.0488200    0.1113319
H   H      0.6379300    0.9457800    0.0661800    0.1052067
H   H      0.6599600    0.5551400    0.1366700    0.1065751
H   H      0.8590400    0.0345600    0.0606700    0.1087768
H   H      0.7296000    0.5517000    0.1173000    0.1253446
N   N      0.7860100    0.5451200    0.0299300   -0.7616265
H   H      0.8059900    0.0631600    0.3496200    0.2529565
H   H      0.7582000    0.5469600    0.0189500    0.2686496
C   C      0.4937200    0.8972200    0.6459400    0.0313969
C   C      0.5314900    0.9123100    0.6302300   -0.1188667
C   C      0.5331600    0.9460000    0.6013100   -0.1216227
C   C      0.4972000    0.9646000    0.5846000    0.0253529
C   C      0.9601400    0.9528400    0.6054900   -0.1138223
C   C      0.9583000    0.9197000    0.6350700   -0.1214330
C   C      0.4979200    0.4986000    0.5498200   -0.0129426
C   C      0.5001800    0.5354800    0.5807500    0.0253254
C   C      0.9649300    0.5549200    0.5981700   -0.1226842
C   C      0.9677000    0.5900900    0.6247900   -0.1190635
C   C      0.5060600    0.6061900    0.6369800    0.0286088
C   C      0.5412600    0.5840800    0.6246100   -0.1235215
C   C      0.5382300    0.5491500    0.5977700   -0.1131606
C   C      0.5326800    0.4981300    0.5159000    0.0251488
C   C      0.9615500    0.9962100    0.5181500    0.0253880
C   C      0.9424800    0.5313500    0.5000400   -0.1226222
C   C      0.9076100    0.5284600    0.4729500   -0.1198650
C   C      0.8913900    0.9901000    0.4607700    0.0286021
C   C      0.9132200    0.9549600    0.4740500   -0.1198640
C   C      0.9477900    0.9580700    0.5014900   -0.1129167
C   C      0.5514100    0.9616400    0.5008500   -0.1228479
C   C      0.5858100    0.9623200    0.4728800   -0.1199901
C   C      0.6015900    0.4994900    0.4562300    0.0313487
C   C      0.5791500    0.5353400    0.4655600   -0.1208552
C   C      0.5453600    0.5345500    0.4943400   -0.1134358
H   H      0.8929500    0.5548500    0.4643100    0.1057091
H   H      0.9526900    0.5598200    0.5080700    0.1112933
H   H      0.9032600    0.9265300    0.4651900    0.1093493
H   H      0.9618200    0.9316200    0.5109500    0.1158805
H   H      0.5417300    0.9339800    0.5123200    0.1121048
H   H      0.6007000    0.9353800    0.4674000    0.1036415
H   H      0.5884000    0.5629000    0.4532400    0.1087213
H   H      0.5313700    0.5616500    0.5013700    0.1149385
H   H      0.5647200    0.5348800    0.5888500    0.1165791
H   H      0.5696400    0.5943000    0.6333400    0.1093322
H   H      0.9413700    0.6051500    0.6328600    0.1079380
H   H      0.9364900    0.5448000    0.5898900    0.1122910
H   H      0.9333200    0.9668000    0.5972000    0.1161593
H   H      0.5611700    0.9551800    0.5904200    0.1123873
H   H      0.5580800    0.8971300    0.6367600    0.1047926
H   H      0.9303300    0.9106500    0.6464900    0.1091323
C   C      0.5092700    0.6462500    0.6550800   -0.0017680
C   C      0.0347000    0.6750500    0.6337200   -0.0783595
C   C      0.5333100    0.7170700    0.6440800    0.1647296
C   C      0.5063200    0.7304100    0.6783500    0.0539487
C   C      0.4819300    0.7016000    0.3676900   -0.1573699
C   C      0.4834000    0.6600800    0.3562000   -0.1410090
H   H      0.4609700    0.7109600    0.3908200    0.1162110
H   H      0.4638800    0.6403300    0.3717200    0.1171788
C   C      0.4967100    0.7723000    0.6829800    0.0296939
C   C      0.9641400    0.7878700    0.6574200   -0.1150398
C   C      0.9613900    0.8297900    0.6486600   -0.1214514
C   C      0.4909300    0.8574400    0.6652300    0.0286006
C   C      0.5213700    0.8418800    0.3608200   -0.1279760
C   C      0.5244200    0.7997800    0.3694600   -0.1258522
H   H      0.9450200    0.7685500    0.6406500    0.1152104
H   H      0.9402100    0.8389900    0.6257300    0.1072167
H   H      0.5437900    0.8605900    0.3727500    0.1068451
H   H      0.0522400    0.6658600    0.6073100    0.1108570
H   H      0.5493100    0.7890600    0.3863900    0.1180098
N   N      0.5562800    0.7429500    0.6189400   -0.7566591
H   H      0.5739200    0.7329100    0.5952600    0.2512902
H   H      0.5560500    0.7722100    0.6235500    0.2710608
C   C      0.8519600    0.4870000    0.4407300   -0.0008313
C   C      0.8385600    0.0144900    0.4074300   -0.0808756
C   C      0.7971600    0.5168000    0.3940600    0.1586135
C   C      0.7684000    0.4899600    0.4140900    0.0559826
C   C      0.7821400    0.4608400    0.4453900   -0.1518996
C   C      0.8231200    0.4594400    0.4585000   -0.1387315
H   H      0.7618100    0.4426500    0.4620300    0.1181213
H   H      0.8307700    0.4402700    0.4840800    0.1165794
C   C      0.7256800    0.4970500    0.4129600    0.0303909
C   C      0.6982300    0.9667700    0.3982700   -0.1304480
C   C      0.6565200    0.9692000    0.4091100   -0.1247338
C   C      0.6411900    0.5012600    0.4360500    0.0299122
C   C      0.6687300    0.5325300    0.4485600   -0.1252393
C   C      0.7102100    0.5305400    0.4372000   -0.1135952
H   H      0.7088400    0.9414000    0.3821500    0.1113338
H   H      0.6379300    0.9457800    0.3995100    0.1052079
H   H      0.6599600    0.5551400    0.4700000    0.1065784
H   H      0.8590400    0.0345600    0.3940000    0.1087760
H   H      0.7296000    0.5517000    0.4506300    0.1253553
N   N      0.7860100    0.5451200    0.3632600   -0.7616580
H   H      0.8059900    0.0631600    0.6829600    0.2529869
H   H      0.7582000    0.5469600    0.3522900    0.2686789
C   C      0.4937200    0.8972200    0.9792700    0.0314022
C   C      0.5314900    0.9123100    0.9635700   -0.1188672
C   C      0.5331600    0.9460000    0.9346400   -0.1216430
C   C      0.4972000    0.9646000    0.9179400    0.0253694
C   C      0.9601400    0.9528400    0.9388200   -0.1138319
C   C      0.9583000    0.9197000    0.9684000   -0.1214362
C   C      0.4979200    0.4986000    0.8831500   -0.0129430
C   C      0.5001800    0.5354800    0.9140900    0.0253471
C   C      0.9649300    0.5549200    0.9315000   -0.1227003
C   C      0.9677000    0.5900900    0.9581300   -0.1190680
C   C      0.5060600    0.6061900    0.9703200    0.0286106
C   C      0.5412600    0.5840800    0.9579400   -0.1235270
C   C      0.5382300    0.5491500    0.9311000   -0.1131780
C   C      0.5326800    0.4981300    0.8492400    0.0251320
C   C      0.9615500    0.9962100    0.8514900    0.0253667
C   C      0.9424800    0.5313500    0.8333700   -0.1226091
C   C      0.9076100    0.5284600    0.8062800   -0.1198755
C   C      0.8913900    0.9901000    0.7941100    0.0286100
C   C      0.9132200    0.9549600    0.8073800   -0.1198689
C   C      0.9477900    0.9580700    0.8348200   -0.1129130
C   C      0.5514100    0.9616400    0.8341800   -0.1228246
C   C      0.5858100    0.9623200    0.8062100   -0.1199842
C   C      0.6015900    0.4994900    0.7895600    0.0313446
C   C      0.5791500    0.5353400    0.7988900   -0.1208554
C   C      0.5453600    0.5345500    0.8276700   -0.1134215
H   H      0.8929500    0.5548500    0.7976500    0.1057134
H   H      0.9526900    0.5598200    0.8414100    0.1112862
H   H      0.9032600    0.9265300    0.7985300    0.1093508
H   H      0.9618200    0.9316200    0.8442800    0.1158796
H   H      0.5417300    0.9339800    0.8456600    0.1120947
H   H      0.6007000    0.9353800    0.8007300    0.1036415
H   H      0.5884000    0.5629000    0.7865700    0.1087229
H   H      0.5313700    0.5616500    0.8347000    0.1149397
H   H      0.5647200    0.5348800    0.9221900    0.1165834
H   H      0.5696400    0.5943000    0.9666700    0.1093308
H   H      0.9413700    0.6051500    0.9661900    0.1079405
H   H      0.9364900    0.5448000    0.9232200    0.1122832
H   H      0.9333200    0.9668000    0.9305300    0.1161569
H   H      0.5611700    0.9551800    0.9237500    0.1123821
H   H      0.5580800    0.8971300    0.9700900    0.1048003
H   H      0.9303300    0.9106500    0.9798200    0.1091306
C   C      0.5092700    0.6462500    0.9884100   -0.0017741
C   C      0.0347000    0.6750500    0.9670600   -0.0783238
C   C      0.5333100    0.7170700    0.9774100    0.1647224
C   C      0.5063200    0.7304100    0.0116800    0.0539547
C   C      0.4819300    0.7016000    0.7010200   -0.1573399
C   C      0.4834000    0.6600800    0.6895400   -0.1410417
H   H      0.4609700    0.7109600    0.7241600    0.1161950
H   H      0.4638800    0.6403300    0.7050500    0.1171912
C   C      0.4967100    0.7723000    0.0163200    0.0296844
C   C      0.9641400    0.7878700    0.9907500   -0.1150397
C   C      0.9613900    0.8297900    0.9819900   -0.1214559
C   C      0.4909300    0.8574400    0.9985600    0.0286044
C   C      0.5213700    0.8418800    0.6941500   -0.1279694
C   C      0.5244200    0.7997800    0.7028000   -0.1258759
H   H      0.9450200    0.7685500    0.9739800    0.1152107
H   H      0.9402100    0.8389900    0.9590600    0.1072158
H   H      0.5437900    0.8605900    0.7060800    0.1068423
H   H      0.0522400    0.6658600    0.9406400    0.1108408
H   H      0.5493100    0.7890600    0.7197200    0.1180287
N   N      0.5562800    0.7429500    0.9522700   -0.7566591
H   H      0.5739200    0.7329100    0.9285900    0.2512883
H   H      0.5560500    0.7722100    0.9568800    0.2710638
C   C      0.8519600    0.4870000    0.7740700   -0.0008294
C   C      0.8385600    0.0144900    0.7407700   -0.0808817
C   C      0.7971600    0.5168000    0.7273900    0.1585962
C   C      0.7684000    0.4899600    0.7474200    0.0559875
C   C      0.7821400    0.4608400    0.7787300   -0.1519294
C   C      0.8231200    0.4594400    0.7918300   -0.1386877
H   H      0.7618100    0.4426500    0.7953600    0.1181340
H   H      0.8307700    0.4402700    0.8174200    0.1165567
C   C      0.7256800    0.4970500    0.7462900    0.0303911
C   C      0.6982300    0.9667700    0.7316100   -0.1304300
C   C      0.6565200    0.9692000    0.7424400   -0.1247427
C   C      0.6411900    0.5012600    0.7693800    0.0299129
C   C      0.6687300    0.5325300    0.7818900   -0.1252162
C   C      0.7102100    0.5305400    0.7705300   -0.1135682
H   H      0.7088400    0.9414000    0.7154800    0.1113215
H   H      0.6379300    0.9457800    0.7328400    0.1052072
H   H      0.6599600    0.5551400    0.8033400    0.1065567
H   H      0.8590400    0.0345600    0.7273400    0.1087774
H   H      0.7296000    0.5517000    0.7839700    0.1253355
N   N      0.7860100    0.5451200    0.6965900   -0.7616969
H   H      0.8059900    0.0631600    0.0162900    0.2529431
H   H      0.7582000    0.5469600    0.6856200    0.2686878
