data_crystal

_cell_length_a   30.6199000
_cell_length_b   30.6198000
_cell_length_c   29.5218000
_cell_angle_alpha   90.0000000
_cell_angle_beta   90.0000000
_cell_angle_gamma  120.0000000

_symmetry_space_group_name_Hall 'P 1'
_symmetry_space_group_name_H-M  'P 1'

loop_
_symmetry_equiv_pos_as_xyz
 'x,y,z' 

loop_
_atom_site_label
_atom_site_type_symbol
_atom_site_fract_x
_atom_site_fract_y
_atom_site_fract_z
_atom_site_charge
C   C      0.1200400    0.5618400    0.0150800    0.0010985
H   H      0.1280600    0.6348100    0.0143000    0.1593736
H   H      0.1280000    0.4968500    0.0143600    0.1641940
C   C      0.0385700    0.5210500    0.0546400   -0.0777600
C   C      0.0660900    0.5348700    0.3470100   -0.0174549
C   C      0.0388500    0.5212900    0.3053200    0.1715308
H   H      0.0571300    0.5302900    0.0850400    0.1677084
N   N      0.0629300    0.5333700    0.2623500    0.2657136
O   O      0.0891400    0.5800400    0.2557900   -0.3183084
O   O      0.0891600    0.5129400    0.2557500   -0.3106259
C   C      0.1200400    0.5618400    0.3484100    0.0011105
H   H      0.1280600    0.6348100    0.3476300    0.1593678
H   H      0.1280000    0.4968500    0.3477000    0.1641949
C   C      0.0385700    0.5210500    0.3879800   -0.0777613
C   C      0.0660900    0.5348700    0.6803500   -0.0174661
C   C      0.0388500    0.5212900    0.6386600    0.1715223
H   H      0.0571300    0.5302900    0.4183800    0.1677074
N   N      0.0629300    0.5333700    0.5956800    0.2657451
O   O      0.0891400    0.5800400    0.5891300   -0.3183238
O   O      0.0891600    0.5129400    0.5890800   -0.3106270
C   C      0.1200400    0.5618400    0.6817500    0.0011017
H   H      0.1280600    0.6348100    0.6809700    0.1593711
H   H      0.1280000    0.4968500    0.6810300    0.1641924
C   C      0.0385700    0.5210500    0.7213100   -0.0777591
C   C      0.0660900    0.5348700    0.0136800   -0.0174750
C   C      0.0388500    0.5212900    0.9719900    0.1715258
H   H      0.0571300    0.5302900    0.7517100    0.1677088
N   N      0.0629300    0.5333700    0.9290200    0.2657075
O   O      0.0891400    0.5800400    0.9224600   -0.3183081
O   O      0.0891600    0.5129400    0.9224100   -0.3106113
C   C      0.1472400    0.6153800    0.0138200    0.0054997
C   C      0.1472000    0.5354500    0.0139200    0.0034438
O   O      0.1804500    0.4855300    0.0903200   -0.3065344
O   O      0.1801300    0.6987100    0.0899200   -0.3094857
C   C      0.1472400    0.6153800    0.3471500    0.0054909
C   C      0.1472000    0.5354500    0.3472500    0.0034261
O   O      0.1804500    0.4855300    0.4236600   -0.3065365
O   O      0.1801300    0.6987100    0.4232600   -0.3094834
C   C      0.1472400    0.6153800    0.6804900    0.0055101
C   C      0.1472000    0.5354500    0.6805900    0.0034420
O   O      0.1804500    0.4855300    0.7569900   -0.3065349
O   O      0.1801300    0.6987100    0.7565900   -0.3094873
C   C      0.2002500    0.5614800    0.0087000    0.0724939
C   C      0.2257100    0.6146300    0.0058600   -0.0833904
C   C      0.2003000    0.6423700    0.0086700    0.0721724
C   C      0.2301200    0.5380400    0.0067800    0.0014435
C   C      0.2581400    0.5459000    0.2998600   -0.1494617
H   H      0.2481800    0.5571900    0.2708600    0.1686748
C   C      0.2486100    0.5274800    0.0473100    0.1245397
N   N      0.2249800    0.5217000    0.0900400    0.2780115
O   O      0.2260000    0.5611000    0.1036300   -0.3011337
C   C      0.2583600    0.7157900    0.2998200   -0.1513419
C   C      0.2302000    0.6956800    0.0066800   -0.0031974
C   C      0.2484500    0.7248600    0.0471500    0.1310488
H   H      0.2486500    0.6944200    0.2709000    0.1729607
N   N      0.2246600    0.7070900    0.0898300    0.2831759
O   O      0.2256600    0.6687600    0.1036100   -0.3067947
C   C      0.2002500    0.5614800    0.3420400    0.0725306
C   C      0.2257100    0.6146300    0.3391900   -0.0833992
C   C      0.2003000    0.6423700    0.3420000    0.0721660
C   C      0.2301200    0.5380400    0.3401100    0.0014309
C   C      0.2581400    0.5459000    0.6331900   -0.1494629
H   H      0.2481800    0.5571900    0.6041900    0.1686735
C   C      0.2486100    0.5274800    0.3806500    0.1245705
N   N      0.2249800    0.5217000    0.4233800    0.2780290
O   O      0.2260000    0.5611000    0.4369600   -0.3011534
C   C      0.2583600    0.7157900    0.6331500   -0.1513418
C   C      0.2302000    0.6956800    0.3400100   -0.0031965
C   C      0.2484500    0.7248600    0.3804900    0.1310871
H   H      0.2486500    0.6944200    0.6042300    0.1729568
N   N      0.2246600    0.7070900    0.4231700    0.2831973
O   O      0.2256600    0.6687600    0.4369400   -0.3068151
C   C      0.2002500    0.5614800    0.6753700    0.0725095
C   C      0.2257100    0.6146300    0.6725200   -0.0834074
C   C      0.2003000    0.6423700    0.6753300    0.0721637
C   C      0.2301200    0.5380400    0.6734500    0.0014559
C   C      0.2581400    0.5459000    0.9665200   -0.1494807
H   H      0.2481800    0.5571900    0.9375300    0.1686865
C   C      0.2486100    0.5274800    0.7139800    0.1245385
N   N      0.2249800    0.5217000    0.7567100    0.2780103
O   O      0.2260000    0.5611000    0.7703000   -0.3011314
C   C      0.2583600    0.7157900    0.9664800   -0.1513617
C   C      0.2302000    0.6956800    0.6733400   -0.0031909
C   C      0.2484500    0.7248600    0.7138200    0.1310875
H   H      0.2486500    0.6944200    0.9375700    0.1729721
N   N      0.2246600    0.7070900    0.7565000    0.2831911
O   O      0.2256600    0.6687600    0.7702700   -0.3068144
H   H      0.2643500    0.6339300    0.0034100    0.1121094
C   C      0.4584200    0.6424600    0.0089000    0.0506950
C   C      0.4052900    0.6147700    0.0059100   -0.0641275
C   C      0.3775500    0.5616300    0.0087800    0.0224367
C   C      0.4045200    0.5355400    0.0139400    0.0053551
C   C      0.4580600    0.5618900    0.0151500    0.0498909
C   C      0.4844600    0.6154400    0.0140500   -0.0094394
H   H      0.3850900    0.4969400    0.0142900    0.1666622
H   H      0.5230600    0.6348400    0.0144800    0.1660397
H   H      0.3859900    0.6341100    0.0033700    0.1225845
C   C      0.3776000    0.8196500    0.0087000    0.0112694
C   C      0.4053500    0.7942500    0.0058100   -0.0650111
C   C      0.4584800    0.8196600    0.0089500    0.0428824
C   C      0.4845100    0.8726800    0.0144900   -0.0351442
C   C      0.4580800    0.8997700    0.0162500    0.0153726
C   C      0.4045700    0.8726700    0.0142600   -0.0140740
H   H      0.5231100    0.8918800    0.0150700    0.1628079
H   H      0.3851800    0.8918700    0.0147000    0.1646325
H   H      0.3860500    0.7556200    0.0032000    0.1279409
C   C      0.8236800    0.4540400    0.0087700    0.0729799
C   C      0.7982700    0.4009000    0.0058300   -0.0833571
C   C      0.8237200    0.3732100    0.0087700    0.0722015
C   C      0.8767800    0.4002200    0.0139200    0.0061543
C   C      0.9039400    0.4537700    0.0151200    0.0003612
C   C      0.8767400    0.4801200    0.0139400    0.0035494
H   H      0.8959700    0.3808100    0.0143700    0.1606534
H   H      0.8959000    0.5187200    0.0143900    0.1643395
H   H      0.7596300    0.3815700    0.0033400    0.1119429
C   C      0.5657700    0.3732500    0.0086600    0.0506856
C   C      0.6189200    0.4009800    0.0058300   -0.0644803
C   C      0.6466300    0.4541200    0.0087400    0.0221036
C   C      0.6196200    0.4801700    0.0138700    0.0050660
C   C      0.5660700    0.4538000    0.0150300    0.0498601
C   C      0.5397000    0.4002500    0.0138100   -0.0092586
H   H      0.6390400    0.5187700    0.0143500    0.1665834
H   H      0.5011000    0.3808300    0.0142300    0.1663073
H   H      0.6382500    0.3816600    0.0034100    0.1227194
C   C      0.6467000    0.1960100    0.0085200    0.0160611
C   C      0.6189900    0.2214400    0.0054600   -0.0619185
C   C      0.5658500    0.1960600    0.0084700    0.0472372
C   C      0.5397900    0.1430300    0.0138500   -0.0110174
C   C      0.5661300    0.1158300    0.0151700    0.0458114
C   C      0.6196700    0.1429700    0.0138900    0.0045241
H   H      0.5011900    0.1238700    0.0144800    0.1654975
H   H      0.6390900    0.1237800    0.0144800    0.1639850
H   H      0.6383300    0.2600700    0.0028800    0.1257669
C   C      0.9578900    0.4807600    0.3470400   -0.0187110
C   C      0.9854300    0.4944800    0.0546500   -0.0722908
H   H      0.9668800    0.4851600    0.0850600    0.1684640
C   C      0.9851100    0.4944200    0.3053300    0.1764585
N   N      0.9610100    0.4824200    0.2623700    0.2700528
O   O      0.9347900    0.5028800    0.2558400   -0.3113729
O   O      0.9347800    0.4357600    0.2557600   -0.3140925
C   C      0.5390900    0.4807700    0.3469800   -0.0270663
C   C      0.5253400    0.4945200    0.0546200   -0.1256104
C   C      0.4987800    0.5211000    0.0546500   -0.1255964
C   C      0.4850200    0.5348900    0.3470400   -0.0269859
C   C      0.4986300    0.5213000    0.3053300    0.1496932
H   H      0.4895100    0.5303600    0.0850700    0.1907899
H   H      0.5346100    0.4852200    0.0850200    0.1907656
C   C      0.5254800    0.4944200    0.3053000    0.1496259
N   N      0.4866000    0.5334000    0.2623800    0.2731769
N   N      0.5375300    0.4824000    0.2623200    0.2732517
O   O      0.4399400    0.5129700    0.2558000   -0.3120039
O   O      0.5170700    0.4357400    0.2557200   -0.3395130
O   O      0.5070600    0.5800700    0.2558400   -0.3397606
O   O      0.5841900    0.5028400    0.2557500   -0.3120304
C   C      0.5391300    0.0618700    0.3474500   -0.0368029
C   C      0.5263400    0.0347100    0.0552800   -0.0825051
C   C      0.4997900    0.9815700    0.0557000   -0.0573456
C   C      0.4850700    0.9537400    0.3482700   -0.0634856
C   C      0.4976800    0.9803800    0.3064800    0.2229571
H   H      0.4911700    0.9632500    0.0862000    0.1893486
H   H      0.5363100    0.0535500    0.0855400    0.1820421
C   C      0.5246300    0.0342600    0.3059500    0.2000256
N   N      0.4824700    0.9512200    0.2661400    0.2310019
N   N      0.5359000    0.0579700    0.2628600    0.2580069
O   O      0.5193900    0.9587300    0.2420000   -0.3067627
O   O      0.5824500    0.0842200    0.2556700   -0.3224335
O   O      0.4523600    0.9587700    0.2431000   -0.3044635
O   O      0.5152700    0.0840600    0.2565600   -0.3419530
C   C      0.3039500    0.5460100    0.2998100   -0.1367222
C   C      0.3242600    0.5382800    0.0066700    0.0105609
C   C      0.2952700    0.5275900    0.0472800    0.1392642
H   H      0.3251900    0.5573600    0.2708100    0.1657396
N   N      0.3131500    0.5217000    0.0899600    0.2736094
O   O      0.3514700    0.5610800    0.1036500   -0.2854126
O   O      0.3215300    0.4855400    0.0901300   -0.3205900
C   C      0.4818100    0.6957600    0.0068800   -0.0107470
C   C      0.4743800    0.7161700    0.2999500   -0.1399422
C   C      0.4743300    0.7619000    0.2999900   -0.1521168
C   C      0.4818600    0.7897300    0.0069500   -0.0131350
C   C      0.4922400    0.7712400    0.0475900    0.1681426
H   H      0.4631900    0.7719600    0.2709600    0.1700239
H   H      0.4631500    0.6949600    0.2709300    0.1787466
C   C      0.4921900    0.7246000    0.0475600    0.1610731
N   N      0.4977700    0.7947400    0.0903500    0.2629458
N   N      0.4978100    0.7066000    0.0902700    0.2602939
O   O      0.4582800    0.7936200    0.1038100   -0.3016716
O   O      0.5339600    0.6982000    0.0906200   -0.3275520
O   O      0.5339300    0.8392700    0.0908300   -0.3326962
O   O      0.4583500    0.6682300    0.1037600   -0.3062954
C   C      0.3243000    0.7897200    0.0066600    0.0054428
C   C      0.3041100    0.7615600    0.2998000   -0.1431153
H   H      0.3255000    0.7712100    0.2709100    0.1641915
C   C      0.2950800    0.7714500    0.0471400    0.1507833
N   N      0.3128100    0.7952500    0.0898200    0.2786231
O   O      0.3211100    0.8397600    0.0899300   -0.3247896
O   O      0.3511400    0.7942900    0.1036300   -0.2877363
C   C      0.7937600    0.4774300    0.0067100    0.0004390
C   C      0.7658600    0.4697900    0.2997800   -0.1487070
C   C      0.7201200    0.4698200    0.2998000   -0.1364670
C   C      0.6999500    0.4775600    0.0067700    0.0108201
C   C      0.7289000    0.4881200    0.0473600    0.1392851
H   H      0.6987600    0.4583200    0.2708800    0.1656570
H   H      0.7756100    0.4581900    0.2708500    0.1687525
C   C      0.7755200    0.4881300    0.0473300    0.1244376
N   N      0.7110300    0.4939500    0.0900500    0.2735560
N   N      0.7991900    0.4939000    0.0900400    0.2783238
O   O      0.6726500    0.4545800    0.1036700   -0.2854503
O   O      0.8437400    0.5300300    0.0902700   -0.3066495
O   O      0.7026800    0.5301400    0.0902600   -0.3206382
O   O      0.7981000    0.4544800    0.1036500   -0.3005407
C   C      0.5423400    0.3199400    0.0066200   -0.0107854
C   C      0.5502100    0.2998600    0.2996700   -0.1420227
C   C      0.5503100    0.2541600    0.2996400   -0.1439804
C   C      0.5425300    0.2260300    0.0064700   -0.0134193
C   C      0.5317900    0.2443200    0.0470500    0.1641172
H   H      0.5616600    0.2443000    0.2706300    0.1776281
H   H      0.5615500    0.3211600    0.2707000    0.1783590
C   C      0.5316900    0.2908900    0.0471500    0.1618672
N   N      0.5258600    0.2205200    0.0897200    0.2616657
N   N      0.5258600    0.3086900    0.0898800    0.2621335
O   O      0.5652000    0.2214900    0.1034000   -0.3031286
O   O      0.4897000    0.3170600    0.0901300   -0.3272634
O   O      0.4896500    0.1760100    0.0898800   -0.3342923
O   O      0.5652400    0.3470300    0.1035400   -0.3063392
C   C      0.7000100    0.2259300    0.0065700    0.0035727
C   C      0.7203400    0.2538300    0.2996400   -0.1404950
C   C      0.7660300    0.2996500    0.2997300   -0.1514285
C   C      0.7938400    0.3199000    0.0067100   -0.0034729
C   C      0.7753900    0.2909800    0.0473200    0.1314285
H   H      0.7760700    0.3209000    0.2707400    0.1737662
H   H      0.6991400    0.2438500    0.2706300    0.1694012
C   C      0.7288000    0.2443400    0.0472700    0.1489260
N   N      0.7989300    0.3089100    0.0900700    0.2843438
N   N      0.7108100    0.2206800    0.0899600    0.2783610
O   O      0.7977600    0.3472300    0.1036100   -0.3065530
O   O      0.7025200    0.1761700    0.0902800   -0.3258498
O   O      0.8435000    0.3173800    0.0904600   -0.3069720
O   O      0.6723900    0.2216700    0.1034500   -0.2889322
H   H      0.2643500    0.6339300    0.3367400    0.1121128
C   C      0.4584200    0.6424600    0.3422400    0.0507088
C   C      0.4052900    0.6147700    0.3392400   -0.0641386
C   C      0.3775500    0.5616300    0.3421100    0.0224283
C   C      0.4045200    0.5355400    0.3472800    0.0053707
C   C      0.4580600    0.5618900    0.3484900    0.0498731
C   C      0.4844600    0.6154400    0.3473800   -0.0094538
H   H      0.3850900    0.4969400    0.3476200    0.1666539
H   H      0.5230600    0.6348400    0.3478100    0.1660346
H   H      0.3859900    0.6341100    0.3367000    0.1225871
C   C      0.3776000    0.8196500    0.3420400    0.0113092
C   C      0.4053500    0.7942500    0.3391400   -0.0650378
C   C      0.4584800    0.8196600    0.3422900    0.0429220
C   C      0.4845100    0.8726800    0.3478200   -0.0351566
C   C      0.4580800    0.8997700    0.3495800    0.0153700
C   C      0.4045700    0.8726700    0.3475900   -0.0141063
H   H      0.5231100    0.8918800    0.3484000    0.1628078
H   H      0.3851800    0.8918700    0.3480400    0.1646427
H   H      0.3860500    0.7556200    0.3365300    0.1279384
C   C      0.8236800    0.4540400    0.3421100    0.0730024
C   C      0.7982700    0.4009000    0.3391600   -0.0833986
C   C      0.8237200    0.3732100    0.3421100    0.0722366
C   C      0.8767800    0.4002200    0.3472500    0.0061464
C   C      0.9039400    0.4537700    0.3484500    0.0003721
C   C      0.8767400    0.4801200    0.3472700    0.0035251
H   H      0.8959700    0.3808100    0.3477000    0.1606546
H   H      0.8959000    0.5187200    0.3477200    0.1643372
H   H      0.7596300    0.3815700    0.3366800    0.1119573
C   C      0.5657700    0.3732500    0.3419900    0.0506801
C   C      0.6189200    0.4009800    0.3391600   -0.0645030
C   C      0.6466300    0.4541200    0.3420700    0.0220955
C   C      0.6196200    0.4801700    0.3472100    0.0050841
C   C      0.5660700    0.4538000    0.3483600    0.0498641
C   C      0.5397000    0.4002500    0.3471400   -0.0092624
H   H      0.6390400    0.5187700    0.3476900    0.1665818
H   H      0.5011000    0.3808300    0.3475700    0.1663119
H   H      0.6382500    0.3816600    0.3367500    0.1227354
C   C      0.6467000    0.1960100    0.3418600    0.0160688
C   C      0.6189900    0.2214400    0.3388000   -0.0619103
C   C      0.5658500    0.1960600    0.3418100    0.0472478
C   C      0.5397900    0.1430300    0.3471900   -0.0110114
C   C      0.5661300    0.1158300    0.3485000    0.0458096
C   C      0.6196700    0.1429700    0.3472300    0.0045124
H   H      0.5011900    0.1238700    0.3478100    0.1655017
H   H      0.6390900    0.1237800    0.3478200    0.1639823
H   H      0.6383300    0.2600700    0.3362200    0.1257670
C   C      0.9578900    0.4807600    0.6803700   -0.0186952
C   C      0.9854300    0.4944800    0.3879900   -0.0722757
H   H      0.9668800    0.4851600    0.4184000    0.1684647
C   C      0.9851100    0.4944200    0.6386700    0.1764406
N   N      0.9610100    0.4824200    0.5957000    0.2700848
O   O      0.9347900    0.5028800    0.5891700   -0.3113729
O   O      0.9347800    0.4357600    0.5891000   -0.3141095
C   C      0.5390900    0.4807700    0.6803200   -0.0270854
C   C      0.5253400    0.4945200    0.3879500   -0.1256218
C   C      0.4987800    0.5211000    0.3879800   -0.1255983
C   C      0.4850200    0.5348900    0.6803800   -0.0269973
C   C      0.4986300    0.5213000    0.6386600    0.1496923
H   H      0.4895100    0.5303600    0.4184000    0.1907908
H   H      0.5346100    0.4852200    0.4183500    0.1907639
C   C      0.5254800    0.4944200    0.6386300    0.1496260
N   N      0.4866000    0.5334000    0.5957100    0.2731796
N   N      0.5375300    0.4824000    0.5956500    0.2732533
O   O      0.4399400    0.5129700    0.5891300   -0.3119982
O   O      0.5170700    0.4357400    0.5890500   -0.3395123
O   O      0.5070600    0.5800700    0.5891700   -0.3397551
O   O      0.5841900    0.5028400    0.5890800   -0.3120292
C   C      0.5391300    0.0618700    0.6807900   -0.0368336
C   C      0.5263400    0.0347100    0.3886200   -0.0825025
C   C      0.4997900    0.9815700    0.3890300   -0.0573419
C   C      0.4850700    0.9537400    0.6816000   -0.0634873
C   C      0.4976800    0.9803800    0.6398100    0.2229756
H   H      0.4911700    0.9632500    0.4195400    0.1893435
H   H      0.5363100    0.0535500    0.4188800    0.1820448
C   C      0.5246300    0.0342600    0.6392800    0.2000412
N   N      0.4824700    0.9512200    0.5994700    0.2310250
N   N      0.5359000    0.0579700    0.5962000    0.2579606
O   O      0.5193900    0.9587300    0.5753300   -0.3067682
O   O      0.5824500    0.0842200    0.5890000   -0.3224202
O   O      0.4523600    0.9587700    0.5764400   -0.3044911
O   O      0.5152700    0.0840600    0.5898900   -0.3419342
C   C      0.3039500    0.5460100    0.6331500   -0.1367194
C   C      0.3242600    0.5382800    0.3400000    0.0105554
C   C      0.2952700    0.5275900    0.3806100    0.1392385
H   H      0.3251900    0.5573600    0.6041500    0.1657382
N   N      0.3131500    0.5217000    0.4232900    0.2735986
O   O      0.3514700    0.5610800    0.4369800   -0.2854077
O   O      0.3215300    0.4855400    0.4234700   -0.3205718
C   C      0.4818100    0.6957600    0.3402200   -0.0107451
C   C      0.4743800    0.7161700    0.6332800   -0.1399629
C   C      0.4743300    0.7619000    0.6333200   -0.1521387
C   C      0.4818600    0.7897300    0.3402800   -0.0131406
C   C      0.4922400    0.7712400    0.3809200    0.1681408
H   H      0.4631900    0.7719600    0.6043000    0.1700381
H   H      0.4631500    0.6949600    0.6042700    0.1787624
C   C      0.4921900    0.7246000    0.3808900    0.1610256
N   N      0.4977700    0.7947400    0.4236800    0.2629398
N   N      0.4978100    0.7066000    0.4236100    0.2603410
O   O      0.4582800    0.7936200    0.4371400   -0.3016739
O   O      0.5339600    0.6982000    0.4239600   -0.3275455
O   O      0.5339300    0.8392700    0.4241600   -0.3326962
O   O      0.4583500    0.6682300    0.4371000   -0.3062869
C   C      0.3243000    0.7897200    0.3399900    0.0054312
C   C      0.3041100    0.7615600    0.6331400   -0.1430993
H   H      0.3255000    0.7712100    0.6042400    0.1641790
C   C      0.2950800    0.7714500    0.3804700    0.1507605
N   N      0.3128100    0.7952500    0.4231500    0.2785977
O   O      0.3211100    0.8397600    0.4232600   -0.3247946
O   O      0.3511400    0.7942900    0.4369700   -0.2877219
C   C      0.7937600    0.4774300    0.3400400    0.0004216
C   C      0.7658600    0.4697900    0.6331100   -0.1487123
C   C      0.7201200    0.4698200    0.6331400   -0.1364608
C   C      0.6999500    0.4775600    0.3401000    0.0108190
C   C      0.7289000    0.4881200    0.3806900    0.1392698
H   H      0.6987600    0.4583200    0.6042100    0.1656452
H   H      0.7756100    0.4581900    0.6041800    0.1687515
C   C      0.7755200    0.4881300    0.3806600    0.1244116
N   N      0.7110300    0.4939500    0.4233900    0.2735991
N   N      0.7991900    0.4939000    0.4233700    0.2783012
O   O      0.6726500    0.4545800    0.4370000   -0.2854676
O   O      0.8437400    0.5300300    0.4236100   -0.3066346
O   O      0.7026800    0.5301400    0.4236000   -0.3206371
O   O      0.7981000    0.4544800    0.4369900   -0.3005214
C   C      0.5423400    0.3199400    0.3399500   -0.0107783
C   C      0.5502100    0.2998600    0.6330100   -0.1420343
C   C      0.5503100    0.2541600    0.6329700   -0.1439792
C   C      0.5425300    0.2260300    0.3398000   -0.0134330
C   C      0.5317900    0.2443200    0.3803900    0.1641737
H   H      0.5616600    0.2443000    0.6039600    0.1776294
H   H      0.5615500    0.3211600    0.6040400    0.1783545
C   C      0.5316900    0.2908900    0.3804800    0.1618212
N   N      0.5258600    0.2205200    0.4230500    0.2616262
N   N      0.5258600    0.3086900    0.4232200    0.2621721
O   O      0.5652000    0.2214900    0.4367300   -0.3031357
O   O      0.4897000    0.3170600    0.4234600   -0.3272796
O   O      0.4896500    0.1760100    0.4232100   -0.3342931
O   O      0.5652400    0.3470300    0.4368800   -0.3063378
C   C      0.7000100    0.2259300    0.3399100    0.0035656
C   C      0.7203400    0.2538300    0.6329800   -0.1404843
C   C      0.7660300    0.2996500    0.6330700   -0.1514148
C   C      0.7938400    0.3199000    0.3400400   -0.0034838
C   C      0.7753900    0.2909800    0.3806500    0.1314268
H   H      0.7760700    0.3209000    0.6040700    0.1737504
H   H      0.6991400    0.2438500    0.6039600    0.1693852
C   C      0.7288000    0.2443400    0.3806000    0.1489012
N   N      0.7989300    0.3089100    0.4234100    0.2843920
N   N      0.7108100    0.2206800    0.4232900    0.2783458
O   O      0.7977600    0.3472300    0.4369400   -0.3065767
O   O      0.7025200    0.1761700    0.4236200   -0.3258343
O   O      0.8435000    0.3173800    0.4237900   -0.3069881
O   O      0.6723900    0.2216700    0.4367800   -0.2889338
H   H      0.2643500    0.6339300    0.6700700    0.1121129
C   C      0.4584200    0.6424600    0.6755700    0.0506933
C   C      0.4052900    0.6147700    0.6725800   -0.0641256
C   C      0.3775500    0.5616300    0.6754500    0.0224458
C   C      0.4045200    0.5355400    0.6806100    0.0053475
C   C      0.4580600    0.5618900    0.6818200    0.0498784
C   C      0.4844600    0.6154400    0.6807200   -0.0094460
H   H      0.3850900    0.4969400    0.6809600    0.1666611
H   H      0.5230600    0.6348400    0.6811500    0.1660375
H   H      0.3859900    0.6341100    0.6700400    0.1225861
C   C      0.3776000    0.8196500    0.6753700    0.0112945
C   C      0.4053500    0.7942500    0.6724800   -0.0649815
C   C      0.4584800    0.8196600    0.6756200    0.0429056
C   C      0.4845100    0.8726800    0.6811500   -0.0351739
C   C      0.4580800    0.8997700    0.6829200    0.0153866
C   C      0.4045700    0.8726700    0.6809200   -0.0141151
H   H      0.5231100    0.8918800    0.6817400    0.1628115
H   H      0.3851800    0.8918700    0.6813700    0.1646409
H   H      0.3860500    0.7556200    0.6698600    0.1279211
C   C      0.8236800    0.4540400    0.6754400    0.0729953
C   C      0.7982700    0.4009000    0.6724900   -0.0833976
C   C      0.8237200    0.3732100    0.6754400    0.0722303
C   C      0.8767800    0.4002200    0.6805900    0.0061581
C   C      0.9039400    0.4537700    0.6817900    0.0003607
C   C      0.8767400    0.4801200    0.6806000    0.0035305
H   H      0.8959700    0.3808100    0.6810400    0.1606522
H   H      0.8959000    0.5187200    0.6810500    0.1643372
H   H      0.7596300    0.3815700    0.6700100    0.1119583
C   C      0.5657700    0.3732500    0.6753300    0.0506916
C   C      0.6189200    0.4009800    0.6725000   -0.0644781
C   C      0.6466300    0.4541200    0.6754100    0.0221140
C   C      0.6196200    0.4801700    0.6805400    0.0050696
C   C      0.5660700    0.4538000    0.6817000    0.0498565
C   C      0.5397000    0.4002500    0.6804700   -0.0092631
H   H      0.6390400    0.5187700    0.6810200    0.1665824
H   H      0.5011000    0.3808300    0.6809000    0.1663134
H   H      0.6382500    0.3816600    0.6700800    0.1227202
C   C      0.6467000    0.1960100    0.6751900    0.0160713
C   C      0.6189900    0.2214400    0.6721300   -0.0619098
C   C      0.5658500    0.1960600    0.6751400    0.0472507
C   C      0.5397900    0.1430300    0.6805200   -0.0110176
C   C      0.5661300    0.1158300    0.6818300    0.0458144
C   C      0.6196700    0.1429700    0.6805600    0.0045122
H   H      0.5011900    0.1238700    0.6811500    0.1654975
H   H      0.6390900    0.1237800    0.6811500    0.1639824
H   H      0.6383300    0.2600700    0.6695500    0.1257670
C   C      0.9578900    0.4807600    0.0137000   -0.0186971
C   C      0.9854300    0.4944800    0.7213200   -0.0722857
H   H      0.9668800    0.4851600    0.7517300    0.1684643
C   C      0.9851100    0.4944200    0.9720000    0.1764568
N   N      0.9610100    0.4824200    0.9290400    0.2700519
O   O      0.9347900    0.5028800    0.9225100   -0.3113735
O   O      0.9347800    0.4357600    0.9224300   -0.3140954
C   C      0.5390900    0.4807700    0.0136500   -0.0270695
C   C      0.5253400    0.4945200    0.7212900   -0.1256243
C   C      0.4987800    0.5211000    0.7213200   -0.1255837
C   C      0.4850200    0.5348900    0.0137100   -0.0269835
C   C      0.4986300    0.5213000    0.9720000    0.1496891
H   H      0.4895100    0.5303600    0.7517400    0.1907925
H   H      0.5346100    0.4852200    0.7516800    0.1907728
C   C      0.5254800    0.4944200    0.9719700    0.1496095
N   N      0.4866000    0.5334000    0.9290400    0.2732306
N   N      0.5375300    0.4824000    0.9289900    0.2732334
O   O      0.4399400    0.5129700    0.9224700   -0.3120206
O   O      0.5170700    0.4357400    0.9223900   -0.3395166
O   O      0.5070600    0.5800700    0.9225100   -0.3397796
O   O      0.5841900    0.5028400    0.9224100   -0.3120148
C   C      0.5391300    0.0618700    0.0141200   -0.0368225
C   C      0.5263400    0.0347100    0.7219500   -0.0824983
C   C      0.4997900    0.9815700    0.7223600   -0.0573528
C   C      0.4850700    0.9537400    0.0149400   -0.0635039
C   C      0.4976800    0.9803800    0.9731400    0.2229923
H   H      0.4911700    0.9632500    0.7528700    0.1893410
H   H      0.5363100    0.0535500    0.7522100    0.1820440
C   C      0.5246300    0.0342600    0.9726100    0.2000562
N   N      0.4824700    0.9512200    0.9328000    0.2310410
N   N      0.5359000    0.0579700    0.9295300    0.2579670
O   O      0.5193900    0.9587300    0.9086700   -0.3067933
O   O      0.5824500    0.0842200    0.9223400   -0.3224379
O   O      0.4523600    0.9587700    0.9097700   -0.3044951
O   O      0.5152700    0.0840600    0.9232200   -0.3419357
C   C      0.3039500    0.5460100    0.9664800   -0.1367255
C   C      0.3242600    0.5382800    0.6733300    0.0105356
C   C      0.2952700    0.5275900    0.7139500    0.1392740
H   H      0.3251900    0.5573600    0.9374800    0.1657417
N   N      0.3131500    0.5217000    0.7566300    0.2736106
O   O      0.3514700    0.5610800    0.7703200   -0.2854119
O   O      0.3215300    0.4855400    0.7568000   -0.3205900
C   C      0.4818100    0.6957600    0.6735500   -0.0107473
C   C      0.4743800    0.7161700    0.9666200   -0.1399466
C   C      0.4743300    0.7619000    0.9666600   -0.1521194
C   C      0.4818600    0.7897300    0.6736100   -0.0131463
C   C      0.4922400    0.7712400    0.7142500    0.1681209
H   H      0.4631900    0.7719600    0.9376300    0.1700212
H   H      0.4631500    0.6949600    0.9376000    0.1787448
C   C      0.4921900    0.7246000    0.7142200    0.1610322
N   N      0.4977700    0.7947400    0.7570200    0.2629897
N   N      0.4978100    0.7066000    0.7569400    0.2603253
O   O      0.4582800    0.7936200    0.7704700   -0.3016899
O   O      0.5339600    0.6982000    0.7572900   -0.3275515
O   O      0.5339300    0.8392700    0.7575000   -0.3326973
O   O      0.4583500    0.6682300    0.7704300   -0.3062925
C   C      0.3243000    0.7897200    0.6733200    0.0054344
C   C      0.3041100    0.7615600    0.9664700   -0.1431203
H   H      0.3255000    0.7712100    0.9375800    0.1641925
C   C      0.2950800    0.7714500    0.7138000    0.1507421
N   N      0.3128100    0.7952500    0.7564900    0.2786441
O   O      0.3211100    0.8397600    0.7566000   -0.3247902
O   O      0.3511400    0.7942900    0.7703000   -0.2877337
C   C      0.7937600    0.4774300    0.6733800    0.0004411
C   C      0.7658600    0.4697900    0.9664400   -0.1487296
C   C      0.7201200    0.4698200    0.9664700   -0.1364733
C   C      0.6999500    0.4775600    0.6734400    0.0108352
C   C      0.7289000    0.4881200    0.7140300    0.1392909
H   H      0.6987600    0.4583200    0.9375500    0.1656559
H   H      0.7756100    0.4581900    0.9375200    0.1687609
C   C      0.7755200    0.4881300    0.7140000    0.1244327
N   N      0.7110300    0.4939500    0.7567200    0.2735729
N   N      0.7991900    0.4939000    0.7567000    0.2782777
O   O      0.6726500    0.4545800    0.7703300   -0.2854682
O   O      0.8437400    0.5300300    0.7569400   -0.3066340
O   O      0.7026800    0.5301400    0.7569300   -0.3206377
O   O      0.7981000    0.4544800    0.7703200   -0.3005220
C   C      0.5423400    0.3199400    0.6732800   -0.0107869
C   C      0.5502100    0.2998600    0.9663400   -0.1420366
C   C      0.5503100    0.2541600    0.9663100   -0.1439872
C   C      0.5425300    0.2260300    0.6731300   -0.0134261
C   C      0.5317900    0.2443200    0.7137200    0.1641491
H   H      0.5616600    0.2443000    0.9373000    0.1776253
H   H      0.5615500    0.3211600    0.9373700    0.1783566
C   C      0.5316900    0.2908900    0.7138100    0.1618286
N   N      0.5258600    0.2205200    0.7563900    0.2616776
N   N      0.5258600    0.3086900    0.7565500    0.2621607
O   O      0.5652000    0.2214900    0.7700600   -0.3031507
O   O      0.4897000    0.3170600    0.7567900   -0.3272804
O   O      0.4896500    0.1760100    0.7565500   -0.3342936
O   O      0.5652400    0.3470300    0.7702100   -0.3063394
C   C      0.7000100    0.2259300    0.6732400    0.0035848
C   C      0.7203400    0.2538300    0.9663100   -0.1404763
C   C      0.7660300    0.2996500    0.9664000   -0.1514162
C   C      0.7938400    0.3199000    0.6733700   -0.0034895
C   C      0.7753900    0.2909800    0.7139900    0.1314643
H   H      0.7760700    0.3209000    0.9374000    0.1737490
H   H      0.6991400    0.2438500    0.9372900    0.1693858
C   C      0.7288000    0.2443400    0.7139300    0.1488923
N   N      0.7989300    0.3089100    0.7567400    0.2843523
N   N      0.7108100    0.2206800    0.7566300    0.2783878
O   O      0.7977600    0.3472300    0.7702700   -0.3065766
O   O      0.7025200    0.1761700    0.7569500   -0.3258496
O   O      0.8435000    0.3173800    0.7571300   -0.3069744
O   O      0.6723900    0.2216700    0.7701100   -0.2889501
