data_crystal

_cell_length_a   37.5503000
_cell_length_b   37.5502000
_cell_length_c   29.6338000
_cell_angle_alpha   90.0000000
_cell_angle_beta   90.0000000
_cell_angle_gamma  120.0000000

_symmetry_space_group_name_Hall 'P 1'
_symmetry_space_group_name_H-M  'P 1'

loop_
_symmetry_equiv_pos_as_xyz
 'x,y,z' 

loop_
_atom_site_label
_atom_site_type_symbol
_atom_site_fract_x
_atom_site_fract_y
_atom_site_fract_z
_atom_site_charge
C   C      0.0943100    0.2419800    0.0023900    0.0142062
C   C      0.1165000    0.2206200    0.0023800   -0.0276368
C   C      0.1600400    0.2419700    0.0023900    0.0527908
C   C      0.1813700    0.2854900    0.0032500   -0.0273996
C   C      0.1600300    0.3076700    0.0038100    0.0592235
C   C      0.1165100    0.2855000    0.0032500   -0.0104510
H   H      0.2128800    0.3012500    0.0033600    0.1523973
H   H      0.1007800    0.3012700    0.0033700    0.1561921
H   H      0.1007500    0.1891300    0.0013300    0.1544243
C   C      0.7647000    0.8466800    0.0023600    0.0560776
C   C      0.7860500    0.8902200    0.0023400   -0.0463454
C   C      0.7647000    0.9124200    0.0023500    0.0488040
C   C      0.7211700    0.8902100    0.0032100   -0.0140559
C   C      0.6989900    0.8466900    0.0037600    0.0195312
C   C      0.7211800    0.8253500    0.0032100   -0.0104747
H   H      0.7054000    0.9059500    0.0033400    0.1526457
H   H      0.7054100    0.7938500    0.0033300    0.1592620
H   H      0.8175400    0.9059700    0.0013000    0.1420432
C   C      0.1600200    0.9124000    0.0023900    0.0624874
C   C      0.1164800    0.8902100    0.0024000   -0.0695198
C   C      0.0942800    0.8466700    0.0023900    0.0097378
C   C      0.1164700    0.8253400    0.0032500   -0.0035814
C   C      0.1599900    0.8466700    0.0038000    0.0685069
C   C      0.1813400    0.8902000    0.0032400    0.0847806
H   H      0.1007300    0.7938300    0.0033600    0.1569839
H   H      0.2128500    0.9059300    0.0033700    0.0143578
H   H      0.1007400    0.9059600    0.0013100    0.1340966
C   C      0.9183800    0.7587200    0.0023700    0.0141736
C   C      0.8961800    0.7800700    0.0023900   -0.0283694
C   C      0.8526400    0.7587200    0.0023800    0.0527430
C   C      0.8313200    0.7151900    0.0032200   -0.0271811
C   C      0.8526600    0.6930100    0.0037800    0.0591653
C   C      0.8961800    0.7151900    0.0032200   -0.0100249
H   H      0.7998100    0.6994200    0.0033300    0.1525531
H   H      0.9119200    0.6994300    0.0033400    0.1564791
H   H      0.9119300    0.8115500    0.0013100    0.1541866
C   C      0.2480100    0.1540300    0.0024000    0.0560794
C   C      0.2266600    0.1104900    0.0024100   -0.0466302
C   C      0.2480200    0.0883000    0.0023700    0.0489253
C   C      0.2915500    0.1105100    0.0032200   -0.0138163
C   C      0.3137200    0.1540300    0.0037900    0.0195806
C   C      0.2915300    0.1753700    0.0032400   -0.0107479
H   H      0.3073200    0.0947700    0.0033400    0.1527690
H   H      0.3072900    0.2068700    0.0033600    0.1591446
H   H      0.1951800    0.0947400    0.0013200    0.1421411
C   C      0.8526600    0.0883300    0.0023800    0.0624921
C   C      0.8962000    0.1105100    0.0023900   -0.0691896
C   C      0.9184000    0.1540500    0.0024000    0.0096623
C   C      0.8962100    0.1753900    0.0032500   -0.0039204
C   C      0.8526900    0.1540500    0.0037900    0.0684858
C   C      0.8313400    0.1105300    0.0032300    0.0844745
H   H      0.9119600    0.2068900    0.0033600    0.1567379
H   H      0.7998400    0.0948000    0.0033500    0.0144349
H   H      0.9119400    0.0947600    0.0013300    0.1338709
C   C      0.3136500    0.5489000    0.0074200    0.0149396
C   C      0.2911200    0.5697300    0.0099100   -0.0639579
C   C      0.2477600    0.5489200    0.0074300    0.0450878
C   C      0.2264400    0.5056000    0.0031900   -0.0110375
C   C      0.2479800    0.4834900    0.0023900    0.0553176
C   C      0.2916200    0.5055800    0.0031800    0.0052943
H   H      0.1949600    0.4899500    0.0029900    0.1650912
H   H      0.3074400    0.4899200    0.0030200    0.1658086
H   H      0.3069000    0.6012600    0.0119700    0.1258397
C   C      0.4577600    0.7590100    0.0077500    0.0797378
C   C      0.4369600    0.7156600    0.0103400   -0.0725389
C   C      0.4577700    0.6931100    0.0076500    0.0698193
C   C      0.5010700    0.7151300    0.0032500    0.0080125
C   C      0.5231700    0.7587700    0.0024300    0.0072038
C   C      0.5010700    0.7803100    0.0033400   -0.0086703
H   H      0.5167300    0.6993000    0.0029600    0.1653063
H   H      0.5167200    0.8117900    0.0031100    0.1528332
H   H      0.4054400    0.6998900    0.0125000    0.1201451
C   C      0.2477400    0.6931900    0.0075200    0.0458396
C   C      0.2911000    0.7157500    0.0100900   -0.1069989
C   C      0.3136300    0.7591200    0.0076100   -0.0027011
C   C      0.2916000    0.7803900    0.0032900    0.1011729
C   C      0.2479500    0.7588200    0.0023800    0.0565416
C   C      0.2264300    0.7151800    0.0031100   -0.0109488
H   H      0.3074000    0.8118700    0.0031200    0.0151478
H   H      0.1949500    0.6993400    0.0029400    0.1664329
H   H      0.3068800    0.7000100    0.0122100    0.1389001
C   C      0.6991100    0.4518000    0.0074300    0.0150044
C   C      0.7216400    0.4309700    0.0099700   -0.0636551
C   C      0.7649900    0.4517600    0.0074400    0.0451563
C   C      0.7863100    0.4950700    0.0031300   -0.0108358
C   C      0.7647900    0.5171900    0.0023000    0.0552717
C   C      0.7211400    0.4951100    0.0030400    0.0055105
H   H      0.8178000    0.5107200    0.0030500    0.1650954
H   H      0.7053400    0.5107800    0.0028800    0.1658374
H   H      0.7058600    0.3994400    0.0121200    0.1257225
C   C      0.5549700    0.2417500    0.0076000    0.0799677
C   C      0.5757500    0.2851100    0.0101800   -0.0726266
C   C      0.5549200    0.3076300    0.0075500    0.0695041
C   C      0.5116200    0.2856000    0.0031100    0.0079964
C   C      0.4895400    0.2419500    0.0023700    0.0071500
C   C      0.5116600    0.2204300    0.0032000   -0.0085857
H   H      0.4959400    0.3014000    0.0029100    0.1652697
H   H      0.4960100    0.1889500    0.0031100    0.1528455
H   H      0.6072800    0.3008900    0.0122900    0.1201533
C   C      0.7649900    0.3076000    0.0074500    0.0456148
C   C      0.7216300    0.2850400    0.0100400   -0.1068725
C   C      0.6991000    0.2416800    0.0075200   -0.0026262
C   C      0.7211300    0.2204000    0.0031800    0.1015605
C   C      0.7647800    0.2419600    0.0023500    0.0567010
C   C      0.7863000    0.2856000    0.0031400   -0.0109946
H   H      0.7053200    0.1889200    0.0030300    0.0150700
H   H      0.8177900    0.3014400    0.0029800    0.1663061
H   H      0.7058600    0.3007900    0.0121400    0.1384561
C   C      0.2260200    0.4396100    0.0043200   -0.0285980
C   C      0.2146800    0.4169400    0.2970300   -0.1347776
C   C      0.1930300    0.3736600    0.2974400   -0.1330073
C   C      0.1819900    0.3515800    0.0051500   -0.0248112
C   C      0.1932100    0.3739900    0.0465100    0.1536309
H   H      0.1853500    0.3583100    0.2672800    0.1963354
H   H      0.2221300    0.4318500    0.2666000    0.1928973
C   C      0.2151200    0.4177800    0.0461000    0.1529682
N   N      0.1834800    0.3545100    0.0893900    0.2717496
N   N      0.2251200    0.4377600    0.0887100    0.2684129
O   O      0.1454100    0.3330700    0.0958400   -0.3150835
O   O      0.2085000    0.4592300    0.0950000   -0.3392010
O   O      0.2001000    0.3330600    0.0958300   -0.3389162
O   O      0.2632100    0.4592100    0.0949800   -0.3169411
C   C      0.5670600    0.7807200    0.0043300   -0.0048971
C   C      0.5897100    0.7920300    0.2970200   -0.1152427
C   C      0.6329900    0.8136800    0.2974200   -0.1150267
C   C      0.6550900    0.8247400    0.0051200   -0.0024057
C   C      0.6327000    0.8135500    0.0464900    0.1263551
H   H      0.6483300    0.8213400    0.2672600    0.1793228
H   H      0.5747900    0.7845700    0.2666100    0.1762289
C   C      0.5889100    0.7916500    0.0461000    0.1258878
N   N      0.6521900    0.8233000    0.0893600    0.2702606
N   N      0.5689400    0.7816700    0.0887200    0.2685015
O   O      0.6736400    0.8066900    0.0958100   -0.3044483
O   O      0.5474900    0.7435800    0.0950200   -0.3125758
O   O      0.6736300    0.8613800    0.0957900   -0.3172702
O   O      0.5475000    0.7983100    0.0950200   -0.3140033
C   C      0.2259800    0.7807400    0.0043100   -0.0358640
C   C      0.2146700    0.7920800    0.2970100   -0.1381398
C   C      0.1930100    0.8137100    0.2974300   -0.1281533
C   C      0.1819400    0.8247200    0.0051400   -0.0244814
C   C      0.1931300    0.8135000    0.0465000    0.1445692
H   H      0.1853500    0.8214000    0.2672700    0.2051428
H   H      0.2221400    0.7846500    0.2665900    0.1956730
C   C      0.2150400    0.7916200    0.0460900    0.1385804
N   N      0.1833700    0.8232200    0.0893800    0.2919868
N   N      0.2250100    0.7816100    0.0886900    0.2849542
O   O      0.1999800    0.8612800    0.0958400   -0.2972373
O   O      0.2631000    0.7982700    0.0950200   -0.2750023
O   O      0.1452900    0.8065800    0.0958000   -0.3119957
O   O      0.2084100    0.7435300    0.0949500   -0.3389946
C   C      0.7867400    0.5610800    0.0042500   -0.0286287
C   C      0.7980700    0.5837500    0.2969600   -0.1346533
C   C      0.8196900    0.6270300    0.2973900   -0.1328473
C   C      0.8307100    0.6491100    0.0051100   -0.0248883
C   C      0.8195100    0.6266900    0.0464600    0.1536588
H   H      0.8273700    0.6423900    0.2672300    0.1964113
H   H      0.7906200    0.5688600    0.2665300    0.1929429
C   C      0.7976300    0.5828900    0.0460300    0.1529369
N   N      0.8292300    0.6461600    0.0893400    0.2718180
N   N      0.7876300    0.5629000    0.0886300    0.2684050
O   O      0.8673000    0.6676100    0.0958000   -0.3150389
O   O      0.8042700    0.5414600    0.0949200   -0.3393435
O   O      0.8125900    0.6675800    0.0957900   -0.3388404
O   O      0.7495400    0.5414300    0.0949000   -0.3168940
C   C      0.4456500    0.2200000    0.0042900   -0.0049475
C   C      0.4229900    0.2086600    0.2970000   -0.1152332
C   C      0.3797100    0.1870200    0.2974100   -0.1150299
C   C      0.3576200    0.1759900    0.0051300   -0.0023576
C   C      0.3800300    0.1872000    0.0464800    0.1263471
H   H      0.3643600    0.1793400    0.2672600    0.1793496
H   H      0.4378900    0.2161000    0.2665700    0.1762225
C   C      0.4238300    0.2090900    0.0460700    0.1258796
N   N      0.3605600    0.1774700    0.0893600    0.2701784
N   N      0.4438100    0.2191000    0.0886800    0.2684787
O   O      0.3391100    0.1940900    0.0958100   -0.3044916
O   O      0.4652700    0.2571900    0.0949500   -0.3125854
O   O      0.3391100    0.1393900    0.0958200   -0.3171573
O   O      0.4652600    0.2024700    0.0949800   -0.3139672
C   C      0.7867300    0.2200300    0.0042900   -0.0358451
C   C      0.7980400    0.2086700    0.2970000   -0.1380685
C   C      0.8196800    0.1870300    0.2974200   -0.1283889
C   C      0.8307500    0.1760200    0.0051300   -0.0245116
C   C      0.8195600    0.1872400    0.0464800    0.1445819
H   H      0.8273400    0.1793300    0.2672600    0.2050173
H   H      0.7905700    0.2161000    0.2665700    0.1957776
C   C      0.7976600    0.2091400    0.0460700    0.1385322
N   N      0.8293200    0.1775200    0.0893700    0.2919728
N   N      0.7876900    0.2191500    0.0886800    0.2849541
O   O      0.8127000    0.1394600    0.0958400   -0.2973092
O   O      0.7496000    0.2025200    0.0949800   -0.2750272
O   O      0.8673900    0.1941600    0.0958000   -0.3121522
O   O      0.8043200    0.2572400    0.0949400   -0.3391115
C   C      0.1820700    0.2200800    0.3339200   -0.0185148
C   C      0.1912200    0.2068300    0.0413300   -0.1382835
C   C      0.2128600    0.1852000    0.0413400   -0.1486789
C   C      0.2261200    0.1760500    0.3339300   -0.0209929
C   C      0.2170900    0.1891600    0.2924600    0.1484478
H   H      0.2189500    0.1761800    0.0715900    0.1758842
H   H      0.1821900    0.2129100    0.0715800    0.1833738
C   C      0.1952000    0.2110700    0.2924600    0.1488708
N   N      0.2287100    0.1810700    0.2497900    0.2846421
N   N      0.1871200    0.2226900    0.2497800    0.2703622
O   O      0.2121900    0.1432800    0.2416800   -0.3097819
O   O      0.2037800    0.2609700    0.2452400   -0.3406897
O   O      0.2669900    0.1977400    0.2452400   -0.3018606
O   O      0.1493400    0.2061600    0.2416500   -0.2860220
C   C      0.7865800    0.9563300    0.3338800   -0.0275778
C   C      0.8001500    0.9787200    0.0412600   -0.1101977
C   C      0.8218000    0.0220000    0.0412700   -0.1961900
C   C      0.8306200    0.0444100    0.3338900   -0.0674174
C   C      0.8172000    0.0222800    0.2924500    0.3045581
H   H      0.8310500    0.0371100    0.0715000    0.1468733
H   H      0.7943000    0.9636100    0.0714900    0.1648471
C   C      0.7953000    0.9784800    0.2924400    0.1973637
N   N      0.8250100    0.0419900    0.2498000   -0.0860599
N   N      0.7834000    0.9587700    0.2497800    0.2653742
O   O      0.8627400    0.0633100    0.2414200   -0.3239352
O   O      0.7450900    0.9372300    0.2454900   -0.3195875
O   O      0.8082500    0.0635400    0.2455100   -0.2435289
O   O      0.7998100    0.9374500    0.2414100   -0.3071233
C   C      0.0503700    0.8246500    0.3339100   -0.0219081
C   C      0.0279600    0.8158400    0.0412800   -0.0879522
C   C      0.9846900    0.7942000    0.0412800   -0.1124769
C   C      0.9622900    0.7806100    0.3339000   -0.0059011
C   C      0.9844300    0.7893200    0.2924600    0.1309253
H   H      0.9695700    0.7883600    0.0715100    0.1676253
H   H      0.0430700    0.8251100    0.0715200    0.1656140
C   C      0.0282400    0.8112200    0.2924600    0.2031248
N   N      0.9647300    0.7774000    0.2498000    0.2726641
N   N      0.0479500    0.8190300    0.2498100    0.2986238
O   O      0.9433900    0.7937800    0.2414100   -0.2836024
O   O      0.0694800    0.8022400    0.2455300   -0.3081634
O   O      0.9432000    0.7390800    0.2455200   -0.3129316
O   O      0.0693000    0.8567600    0.2414400   -0.3021684
C   C      0.8306100    0.7806000    0.3339000   -0.0183354
C   C      0.8216200    0.7940100    0.0412900   -0.1381912
C   C      0.7999800    0.8156500    0.0412900   -0.1487277
C   C      0.7865900    0.8246500    0.3338900   -0.0211420
C   C      0.7954700    0.8114000    0.2924300    0.1484434
H   H      0.7940000    0.8247900    0.0715300    0.1758281
H   H      0.8307400    0.7880300    0.0715400    0.1831931
C   C      0.8173700    0.7894900    0.2924400    0.1490317
N   N      0.7837300    0.8193500    0.2497700    0.2847782
N   N      0.8253200    0.7777300    0.2497800    0.2701427
O   O      0.8001900    0.8571100    0.2415300   -0.3094726
O   O      0.8086000    0.7394400    0.2453500   -0.3408057
O   O      0.7454300    0.8026400    0.2453300   -0.3019590
O   O      0.8630800    0.7941900    0.2415500   -0.2863199
C   C      0.2261400    0.0443900    0.3338900   -0.0275240
C   C      0.2123900    0.0220000    0.0412600   -0.1102453
C   C      0.1907300    0.9787200    0.0412600   -0.1948044
C   C      0.1820600    0.9563100    0.3339000   -0.0674939
C   C      0.1956200    0.9784500    0.2924700    0.3059069
H   H      0.1813700    0.9636100    0.0714900    0.1460375
H   H      0.2181300    0.0371000    0.0714800    0.1647911
C   C      0.2175500    0.0222500    0.2924600    0.1973507
N   N      0.1879300    0.9587300    0.2498300   -0.0891032
N   N      0.2295900    0.0419500    0.2498200    0.2653978
O   O      0.1502300    0.9373700    0.2413500   -0.3235325
O   O      0.2679200    0.0634400    0.2456500   -0.3197651
O   O      0.2047500    0.9372200    0.2456500   -0.2431849
O   O      0.2132700    0.0633200    0.2413200   -0.3068518
C   C      0.9623100    0.1760700    0.3339300   -0.0221574
C   C      0.9847200    0.1851800    0.0413300   -0.0880389
C   C      0.0280000    0.2068100    0.0413300   -0.1123834
C   C      0.0504000    0.2201000    0.3339200   -0.0060621
C   C      0.0282500    0.2111300    0.2924600    0.1310044
H   H      0.0431100    0.2128500    0.0715700    0.1677715
H   H      0.9696100    0.1761200    0.0715800    0.1655914
C   C      0.9844500    0.1892300    0.2924600    0.2031027
N   N      0.0479500    0.2227900    0.2497900    0.2728232
N   N      0.9647400    0.1811800    0.2497900    0.2989245
O   O      0.0692000    0.2062600    0.2416200   -0.2835916
O   O      0.9431400    0.1978600    0.2452800   -0.3079164
O   O      0.0695800    0.2610700    0.2452800   -0.3125365
O   O      0.9434700    0.1434000    0.2416400   -0.3026541
C   C      0.2285200    0.5731200    0.3427500   -0.0149615
C   C      0.2347300    0.5958600    0.0495400   -0.1430915
C   C      0.2348000    0.6332000    0.0495400   -0.1340295
C   C      0.2285200    0.6497500    0.3428000   -0.0110358
C   C      0.2197000    0.6260400    0.3024100    0.1537393
H   H      0.2442000    0.6505500    0.0783900    0.1842944
H   H      0.2441900    0.5879100    0.0783500    0.1780773
C   C      0.2197300    0.5880600    0.3023800    0.1619201
N   N      0.2147800    0.6405600    0.2599200    0.2634995
N   N      0.2147900    0.5686300    0.2598800    0.2641747
O   O      0.2468600    0.6718100    0.2462100   -0.3132489
O   O      0.1853400    0.5322800    0.2598500   -0.3320029
O   O      0.1853200    0.6474400    0.2598800   -0.3253339
O   O      0.2468600    0.5694600    0.2461400   -0.3041073
C   C      0.4335500    0.6496800    0.3429200   -0.0027002
C   C      0.4108400    0.6329700    0.0496900   -0.1497092
C   C      0.3735600    0.5956300    0.0496300   -0.1376276
C   C      0.3571000    0.5730600    0.3427400    0.0060130
C   C      0.3806800    0.5881000    0.3023100    0.1491075
H   H      0.3561500    0.5875200    0.0784500    0.1701085
H   H      0.4187700    0.6502900    0.0785600    0.1734075
C   C      0.4186700    0.6261000    0.3024300    0.1312476
N   N      0.3661500    0.5687600    0.2597700    0.2757975
N   N      0.4380400    0.6407500    0.2599300    0.2796918
O   O      0.3348800    0.5696100    0.2461600   -0.2889894
O   O      0.4744000    0.6476800    0.2597700   -0.3079123
O   O      0.3592700    0.5324300    0.2596100   -0.3282409
O   O      0.4371500    0.6720000    0.2463700   -0.3069532
C   C      0.3570800    0.7784100    0.3429800   -0.0543289
C   C      0.3734800    0.7721200    0.0498100   -0.1013465
C   C      0.4107300    0.7720200    0.0498400   -0.1846644
C   C      0.4335400    0.7782200    0.3431000   -0.0736233
C   C      0.4186800    0.7870100    0.3026600    0.0773632
H   H      0.4187900    0.7627800    0.0787300    0.1839442
H   H      0.3561300    0.7629000    0.0786800    0.1272978
C   C      0.3807200    0.7870900    0.3025800    0.0832392
N   N      0.4381700    0.7919500    0.2601800    0.3838734
N   N      0.3662400    0.7919800    0.2600400    0.4135337
O   O      0.4373600    0.7598900    0.2464600   -0.2958003
O   O      0.3593700    0.8214400    0.2599500   -0.3062511
O   O      0.4745000    0.8214200    0.2601800   -0.3262635
O   O      0.3349800    0.7599000    0.2463500    0.0422001
C   C      0.7841900    0.4275300    0.3428700   -0.0154833
C   C      0.7781200    0.4048800    0.0496900   -0.1432538
C   C      0.7780700    0.3675500    0.0496700   -0.1341354
C   C      0.7842200    0.3510500    0.3428500   -0.0114281
C   C      0.7928700    0.3746200    0.3023700    0.1537752
H   H      0.7689000    0.3502300    0.0785500    0.1848151
H   H      0.7688900    0.4129900    0.0785500    0.1786627
C   C      0.7928400    0.4126000    0.3023900    0.1617806
N   N      0.7976900    0.3600600    0.2598500    0.2636110
N   N      0.7977100    0.4320100    0.2598800    0.2640611
O   O      0.7655800    0.3288100    0.2462100   -0.3130943
O   O      0.8271800    0.4683400    0.2597900   -0.3320451
O   O      0.8271400    0.3531700    0.2597300   -0.3253697
O   O      0.7656300    0.4311800    0.2462100   -0.3041082
C   C      0.5790900    0.3510800    0.3427100   -0.0021153
C   C      0.6018100    0.3676400    0.0495200   -0.1499462
C   C      0.6391500    0.4049100    0.0494700   -0.1379992
C   C      0.6556600    0.4276400    0.3426500    0.0064219
C   C      0.6320200    0.4126700    0.3022500    0.1489653
H   H      0.6565100    0.4129300    0.0783200    0.1700743
H   H      0.5938400    0.3502900    0.0783800    0.1733803
C   C      0.5940300    0.3746800    0.3022700    0.1312495
N   N      0.6465900    0.4320200    0.2597200    0.2757288
N   N      0.5746400    0.3600700    0.2597700    0.2798023
O   O      0.6778400    0.4311400    0.2461200   -0.2888576
O   O      0.5383000    0.3531800    0.2596500   -0.3078369
O   O      0.6535100    0.4683700    0.2595700   -0.3281928
O   O      0.5754800    0.3287900    0.2462000   -0.3069303
C   C      0.6556500    0.2223900    0.3428900   -0.0542620
C   C      0.6392300    0.2286200    0.0497400   -0.1001794
C   C      0.6019700    0.2287200    0.0497500   -0.1848197
C   C      0.5792000    0.2225600    0.3429900   -0.0737006
C   C      0.5940400    0.2137100    0.3025600    0.0769027
H   H      0.5940300    0.2381900    0.0785600    0.1837940
H   H      0.6566700    0.2380800    0.0785300    0.1258729
C   C      0.6319900    0.2136300    0.3024900    0.0828751
N   N      0.5745400    0.2087400    0.2600900    0.3823530
N   N      0.6464800    0.2087200    0.2599700    0.4130096
O   O      0.5753600    0.2408000    0.2463300   -0.2959085
O   O      0.6533600    0.1792700    0.2599100   -0.3060674
O   O      0.5382100    0.1792800    0.2601100   -0.3261841
O   O      0.6777200    0.2408000    0.2462500    0.0439917
C   C      0.0943100    0.2419800    0.3357200    0.0142132
C   C      0.1165000    0.2206200    0.3357100   -0.0276105
C   C      0.1600400    0.2419700    0.3357200    0.0527986
C   C      0.1813700    0.2854900    0.3365800   -0.0273994
C   C      0.1600300    0.3076700    0.3371400    0.0592145
C   C      0.1165100    0.2855000    0.3365800   -0.0104656
H   H      0.2128800    0.3012500    0.3367000    0.1523961
H   H      0.1007800    0.3012700    0.3367000    0.1561888
H   H      0.1007500    0.1891300    0.3346700    0.1544105
C   C      0.7647000    0.8466800    0.3356900    0.0560991
C   C      0.7860500    0.8902200    0.3356800   -0.0463913
C   C      0.7647000    0.9124200    0.3356800    0.0488252
C   C      0.7211700    0.8902100    0.3365400   -0.0140620
C   C      0.6989900    0.8466900    0.3371000    0.0195413
C   C      0.7211800    0.8253500    0.3365400   -0.0104782
H   H      0.7054000    0.9059500    0.3366700    0.1526439
H   H      0.7054100    0.7938500    0.3366700    0.1592601
H   H      0.8175400    0.9059700    0.3346300    0.1420600
C   C      0.1600200    0.9124000    0.3357200    0.0624979
C   C      0.1164800    0.8902100    0.3357400   -0.0695323
C   C      0.0942800    0.8466700    0.3357200    0.0097626
C   C      0.1164700    0.8253400    0.3365800   -0.0035719
C   C      0.1599900    0.8466700    0.3371300    0.0685001
C   C      0.1813400    0.8902000    0.3365800    0.0847770
H   H      0.1007300    0.7938300    0.3367000    0.1569793
H   H      0.2128500    0.9059300    0.3367000    0.0143579
H   H      0.1007400    0.9059600    0.3346400    0.1340800
C   C      0.9183800    0.7587200    0.3357000    0.0141964
C   C      0.8961800    0.7800700    0.3357300   -0.0284194
C   C      0.8526400    0.7587200    0.3357100    0.0527657
C   C      0.8313200    0.7151900    0.3365600   -0.0271763
C   C      0.8526600    0.6930100    0.3371100    0.0591714
C   C      0.8961800    0.7151900    0.3365500   -0.0100202
H   H      0.7998100    0.6994200    0.3366700    0.1525581
H   H      0.9119200    0.6994300    0.3366700    0.1564773
H   H      0.9119300    0.8115500    0.3346400    0.1542013
C   C      0.2480100    0.1540300    0.3357400    0.0560445
C   C      0.2266600    0.1104900    0.3357400   -0.0465981
C   C      0.2480200    0.0883000    0.3357000    0.0489306
C   C      0.2915500    0.1105100    0.3365600   -0.0138259
C   C      0.3137200    0.1540300    0.3371200    0.0195894
C   C      0.2915300    0.1753700    0.3365800   -0.0107359
H   H      0.3073200    0.0947700    0.3366800    0.1527710
H   H      0.3072900    0.2068700    0.3366900    0.1591494
H   H      0.1951800    0.0947400    0.3346600    0.1421270
C   C      0.8526600    0.0883300    0.3357100    0.0625166
C   C      0.8962000    0.1105100    0.3357300   -0.0691923
C   C      0.9184000    0.1540500    0.3357300    0.0096872
C   C      0.8962100    0.1753900    0.3365800   -0.0039077
C   C      0.8526900    0.1540500    0.3371300    0.0684913
C   C      0.8313400    0.1105300    0.3365700    0.0844756
H   H      0.9119600    0.2068900    0.3367000    0.1567345
H   H      0.7998400    0.0948000    0.3366800    0.0144348
H   H      0.9119400    0.0947600    0.3346600    0.1338823
C   C      0.3136500    0.5489000    0.3407600    0.0149170
C   C      0.2911200    0.5697300    0.3432400   -0.0639453
C   C      0.2477600    0.5489200    0.3407600    0.0450906
C   C      0.2264400    0.5056000    0.3365200   -0.0110311
C   C      0.2479800    0.4834900    0.3357200    0.0553056
C   C      0.2916200    0.5055800    0.3365100    0.0053009
H   H      0.1949600    0.4899500    0.3363300    0.1650946
H   H      0.3074400    0.4899200    0.3363500    0.1658124
H   H      0.3069000    0.6012600    0.3453000    0.1258393
C   C      0.4577600    0.7590100    0.3410800    0.0797418
C   C      0.4369600    0.7156600    0.3436700   -0.0725147
C   C      0.4577700    0.6931100    0.3409900    0.0697812
C   C      0.5010700    0.7151300    0.3365800    0.0080236
C   C      0.5231700    0.7587700    0.3357600    0.0071960
C   C      0.5010700    0.7803100    0.3366700   -0.0086755
H   H      0.5167300    0.6993000    0.3362900    0.1653073
H   H      0.5167200    0.8117900    0.3364400    0.1528303
H   H      0.4054400    0.6998900    0.3458400    0.1201337
C   C      0.2477400    0.6931900    0.3408600    0.0458281
C   C      0.2911000    0.7157500    0.3434200   -0.1070019
C   C      0.3136300    0.7591200    0.3409500   -0.0027063
C   C      0.2916000    0.7803900    0.3366300    0.1011886
C   C      0.2479500    0.7588200    0.3357100    0.0565444
C   C      0.2264300    0.7151800    0.3364400   -0.0109439
H   H      0.3074000    0.8118700    0.3364500    0.0151476
H   H      0.1949500    0.6993400    0.3362700    0.1664324
H   H      0.3068800    0.7000100    0.3455500    0.1389087
C   C      0.6991100    0.4518000    0.3407700    0.0149817
C   C      0.7216400    0.4309700    0.3433100   -0.0636815
C   C      0.7649900    0.4517600    0.3407700    0.0451783
C   C      0.7863100    0.4950700    0.3364600   -0.0108333
C   C      0.7647900    0.5171900    0.3356400    0.0552838
C   C      0.7211400    0.4951100    0.3363700    0.0055251
H   H      0.8178000    0.5107200    0.3363800    0.1650941
H   H      0.7053400    0.5107800    0.3362100    0.1658364
H   H      0.7058600    0.3994400    0.3454500    0.1257387
C   C      0.5549700    0.2417500    0.3409300    0.0799761
C   C      0.5757500    0.2851100    0.3435100   -0.0726290
C   C      0.5549200    0.3076300    0.3408800    0.0695048
C   C      0.5116200    0.2856000    0.3364400    0.0079982
C   C      0.4895400    0.2419500    0.3357000    0.0071362
C   C      0.5116600    0.2204300    0.3365400   -0.0085954
H   H      0.4959400    0.3014000    0.3362400    0.1652700
H   H      0.4960100    0.1889500    0.3364400    0.1528491
H   H      0.6072800    0.3008900    0.3456200    0.1201505
C   C      0.7649900    0.3076000    0.3407800    0.0456183
C   C      0.7216300    0.2850400    0.3433700   -0.1068675
C   C      0.6991000    0.2416800    0.3408500   -0.0026317
C   C      0.7211300    0.2204000    0.3365100    0.1015548
C   C      0.7647800    0.2419600    0.3356900    0.0567091
C   C      0.7863000    0.2856000    0.3364800   -0.0109987
H   H      0.7053200    0.1889200    0.3363600    0.0150698
H   H      0.8177900    0.3014400    0.3363100    0.1663137
H   H      0.7058600    0.3007900    0.3454700    0.1384428
C   C      0.2260200    0.4396100    0.3376500   -0.0286100
C   C      0.2146800    0.4169400    0.6303600   -0.1347864
C   C      0.1930300    0.3736600    0.6307700   -0.1330360
C   C      0.1819900    0.3515800    0.3384800   -0.0248126
C   C      0.1932100    0.3739900    0.3798400    0.1535958
H   H      0.1853500    0.3583100    0.6006200    0.1963469
H   H      0.2221300    0.4318500    0.5999300    0.1929038
C   C      0.2151200    0.4177800    0.3794400    0.1530128
N   N      0.1834800    0.3545100    0.4227200    0.2717422
N   N      0.2251200    0.4377600    0.4220400    0.2683819
O   O      0.1454100    0.3330700    0.4291800   -0.3150632
O   O      0.2085000    0.4592300    0.4283300   -0.3392059
O   O      0.2001000    0.3330600    0.4291600   -0.3389164
O   O      0.2632100    0.4592100    0.4283200   -0.3169230
C   C      0.5670600    0.7807200    0.3376600   -0.0049242
C   C      0.5897100    0.7920300    0.6303600   -0.1152326
C   C      0.6329900    0.8136800    0.6307500   -0.1150275
C   C      0.6550900    0.8247400    0.3384600   -0.0023968
C   C      0.6327000    0.8135500    0.3798200    0.1263396
H   H      0.6483300    0.8213400    0.6005900    0.1793216
H   H      0.5747900    0.7845700    0.5999400    0.1762187
C   C      0.5889100    0.7916500    0.3794400    0.1259199
N   N      0.6521900    0.8233000    0.4226900    0.2702576
N   N      0.5689400    0.7816700    0.4220500    0.2684739
O   O      0.6736400    0.8066900    0.4291400   -0.3044523
O   O      0.5474900    0.7435800    0.4283500   -0.3125768
O   O      0.6736300    0.8613800    0.4291200   -0.3172695
O   O      0.5475000    0.7983100    0.4283600   -0.3139859
C   C      0.2259800    0.7807400    0.3376400   -0.0358648
C   C      0.2146700    0.7920800    0.6303500   -0.1381195
C   C      0.1930100    0.8137100    0.6307600   -0.1281538
C   C      0.1819400    0.8247200    0.3384700   -0.0244988
C   C      0.1931300    0.8135000    0.3798300    0.1445436
H   H      0.1853500    0.8214000    0.6006000    0.2051399
H   H      0.2221400    0.7846500    0.5999200    0.1956595
C   C      0.2150400    0.7916200    0.3794200    0.1385857
N   N      0.1833700    0.8232200    0.4227100    0.2919566
N   N      0.2250100    0.7816100    0.4220300    0.2850105
O   O      0.1999800    0.8612800    0.4291800   -0.2972100
O   O      0.2631000    0.7982700    0.4283500   -0.2750236
O   O      0.1452900    0.8065800    0.4291400   -0.3119761
O   O      0.2084100    0.7435300    0.4282800   -0.3390169
C   C      0.7867400    0.5610800    0.3375800   -0.0286438
C   C      0.7980700    0.5837500    0.6302900   -0.1346465
C   C      0.8196900    0.6270300    0.6307200   -0.1328663
C   C      0.8307100    0.6491100    0.3384400   -0.0248718
C   C      0.8195100    0.6266900    0.3797900    0.1536377
H   H      0.8273700    0.6423900    0.6005700    0.1964175
H   H      0.7906200    0.5688600    0.5998600    0.1929464
C   C      0.7976300    0.5828900    0.3793700    0.1529960
N   N      0.8292300    0.6461600    0.4226800    0.2718519
N   N      0.7876300    0.5629000    0.4219700    0.2684155
O   O      0.8673000    0.6676100    0.4291300   -0.3150551
O   O      0.8042700    0.5414600    0.4282500   -0.3393659
O   O      0.8125900    0.6675800    0.4291200   -0.3388620
O   O      0.7495400    0.5414300    0.4282300   -0.3169124
C   C      0.4456500    0.2200000    0.3376300   -0.0049307
C   C      0.4229900    0.2086600    0.6303300   -0.1152605
C   C      0.3797100    0.1870200    0.6307500   -0.1150100
C   C      0.3576200    0.1759900    0.3384600   -0.0023646
C   C      0.3800300    0.1872000    0.3798200    0.1263782
H   H      0.3643600    0.1793400    0.6005900    0.1793404
H   H      0.4378900    0.2161000    0.5999100    0.1762305
C   C      0.4238300    0.2090900    0.3794100    0.1258868
N   N      0.3605600    0.1774700    0.4227000    0.2701971
N   N      0.4438100    0.2191000    0.4220100    0.2684407
O   O      0.3391100    0.1940900    0.4291400   -0.3045070
O   O      0.4652700    0.2571900    0.4282800   -0.3125835
O   O      0.3391100    0.1393900    0.4291500   -0.3171761
O   O      0.4652600    0.2024700    0.4283200   -0.3139472
C   C      0.7867300    0.2200300    0.3376300   -0.0358234
C   C      0.7980400    0.2086700    0.6303300   -0.1380533
C   C      0.8196800    0.1870300    0.6307500   -0.1283824
C   C      0.8307500    0.1760200    0.3384700   -0.0244999
C   C      0.8195600    0.1872400    0.3798200    0.1446339
H   H      0.8273400    0.1793300    0.6005900    0.2050146
H   H      0.7905700    0.2161000    0.5999000    0.1957784
C   C      0.7976600    0.2091400    0.3794000    0.1385123
N   N      0.8293200    0.1775200    0.4227000    0.2919392
N   N      0.7876900    0.2191500    0.4220100    0.2849480
O   O      0.8127000    0.1394600    0.4291700   -0.2973180
O   O      0.7496000    0.2025200    0.4283100   -0.2750299
O   O      0.8673900    0.1941600    0.4291300   -0.3121593
O   O      0.8043200    0.2572400    0.4282700   -0.3391107
C   C      0.1820700    0.2200800    0.6672600   -0.0185222
C   C      0.1912200    0.2068300    0.3746600   -0.1382976
C   C      0.2128600    0.1852000    0.3746700   -0.1486889
C   C      0.2261200    0.1760500    0.6672600   -0.0209907
C   C      0.2170900    0.1891600    0.6257900    0.1484654
H   H      0.2189500    0.1761800    0.4049200    0.1758825
H   H      0.1821900    0.2129100    0.4049100    0.1833718
C   C      0.1952000    0.2110700    0.6257900    0.1488713
N   N      0.2287100    0.1810700    0.5831200    0.2846488
N   N      0.1871200    0.2226900    0.5831100    0.2703603
O   O      0.2121900    0.1432800    0.5750200   -0.3098044
O   O      0.2037800    0.2609700    0.5785700   -0.3406876
O   O      0.2669900    0.1977400    0.5785700   -0.3018597
O   O      0.1493400    0.2061600    0.5749800   -0.2860202
C   C      0.7865800    0.9563300    0.6672200   -0.0275917
C   C      0.8001500    0.9787200    0.3746000   -0.1102094
C   C      0.8218000    0.0220000    0.3746000   -0.1962118
C   C      0.8306200    0.0444100    0.6672300   -0.0674469
C   C      0.8172000    0.0222800    0.6257800    0.3045788
H   H      0.8310500    0.0371100    0.4048400    0.1468597
H   H      0.7943000    0.9636100    0.4048200    0.1648604
C   C      0.7953000    0.9784800    0.6257700    0.1973730
N   N      0.8250100    0.0419900    0.5831300   -0.0860604
N   N      0.7834000    0.9587700    0.5831200    0.2653355
O   O      0.8627400    0.0633100    0.5747600   -0.3239730
O   O      0.7450900    0.9372300    0.5788200   -0.3195734
O   O      0.8082500    0.0635400    0.5788400   -0.2435343
O   O      0.7998100    0.9374500    0.5747400   -0.3071075
C   C      0.0503700    0.8246500    0.6672400   -0.0219021
C   C      0.0279600    0.8158400    0.3746200   -0.0879522
C   C      0.9846900    0.7942000    0.3746100   -0.1124718
C   C      0.9622900    0.7806100    0.6672300   -0.0058752
C   C      0.9844300    0.7893200    0.6257900    0.1309484
H   H      0.9695700    0.7883600    0.4048400    0.1676221
H   H      0.0430700    0.8251100    0.4048500    0.1656221
C   C      0.0282400    0.8112200    0.6258000    0.2031007
N   N      0.9647300    0.7774000    0.5831300    0.2726745
N   N      0.0479500    0.8190300    0.5831500    0.2986225
O   O      0.9433900    0.7937800    0.5747500   -0.2836209
O   O      0.0694800    0.8022400    0.5788600   -0.3081468
O   O      0.9432000    0.7390800    0.5788600   -0.3129473
O   O      0.0693000    0.8567600    0.5747800   -0.3021748
C   C      0.8306100    0.7806000    0.6672300   -0.0183383
C   C      0.8216200    0.7940100    0.3746300   -0.1382105
C   C      0.7999800    0.8156500    0.3746200   -0.1487159
C   C      0.7865900    0.8246500    0.6672200   -0.0211300
C   C      0.7954700    0.8114000    0.6257700    0.1484034
H   H      0.7940000    0.8247900    0.4048600    0.1758331
H   H      0.8307400    0.7880300    0.4048700    0.1832058
C   C      0.8173700    0.7894900    0.6257700    0.1490480
N   N      0.7837300    0.8193500    0.5831000    0.2848099
N   N      0.8253200    0.7777300    0.5831100    0.2701454
O   O      0.8001900    0.8571100    0.5748600   -0.3094710
O   O      0.8086000    0.7394400    0.5786800   -0.3408056
O   O      0.7454300    0.8026400    0.5786700   -0.3019760
O   O      0.8630800    0.7941900    0.5748800   -0.2863204
C   C      0.2261400    0.0443900    0.6672200   -0.0275237
C   C      0.2123900    0.0220000    0.3745900   -0.1102549
C   C      0.1907300    0.9787200    0.3746000   -0.1948043
C   C      0.1820600    0.9563100    0.6672400   -0.0675136
C   C      0.1956200    0.9784500    0.6258000    0.3059198
H   H      0.1813700    0.9636100    0.4048200    0.1460436
H   H      0.2181300    0.0371000    0.4048100    0.1647892
C   C      0.2175500    0.0222500    0.6258000    0.1973097
N   N      0.1879300    0.9587300    0.5831600   -0.0890874
N   N      0.2295900    0.0419500    0.5831500    0.2654296
O   O      0.1502300    0.9373700    0.5746800   -0.3235288
O   O      0.2679200    0.0634400    0.5789800   -0.3197649
O   O      0.2047500    0.9372200    0.5789800   -0.2431855
O   O      0.2132700    0.0633200    0.5746500   -0.3068482
C   C      0.9623100    0.1760700    0.6672600   -0.0221398
C   C      0.9847200    0.1851800    0.3746600   -0.0880351
C   C      0.0280000    0.2068100    0.3746600   -0.1123703
C   C      0.0504000    0.2201000    0.6672600   -0.0060811
C   C      0.0282500    0.2111300    0.6257900    0.1310100
H   H      0.0431100    0.2128500    0.4049100    0.1677610
H   H      0.9696100    0.1761200    0.4049100    0.1655911
C   C      0.9844500    0.1892300    0.6257900    0.2031189
N   N      0.0479500    0.2227900    0.5831200    0.2728192
N   N      0.9647400    0.1811800    0.5831300    0.2988903
O   O      0.0692000    0.2062600    0.5749500   -0.2835904
O   O      0.9431400    0.1978600    0.5786100   -0.3079039
O   O      0.0695800    0.2610700    0.5786100   -0.3125308
O   O      0.9434700    0.1434000    0.5749800   -0.3026548
C   C      0.2285200    0.5731200    0.6760800   -0.0149585
C   C      0.2347300    0.5958600    0.3828800   -0.1430804
C   C      0.2348000    0.6332000    0.3828700   -0.1340031
C   C      0.2285200    0.6497500    0.6761300   -0.0110220
C   C      0.2197000    0.6260400    0.6357500    0.1537370
H   H      0.2442000    0.6505500    0.4117300    0.1842798
H   H      0.2441900    0.5879100    0.4116900    0.1780740
C   C      0.2197300    0.5880600    0.6357200    0.1618791
N   N      0.2147800    0.6405600    0.5932500    0.2635438
N   N      0.2147900    0.5686300    0.5932100    0.2642000
O   O      0.2468600    0.6718100    0.5795500   -0.3132794
O   O      0.1853400    0.5322800    0.5931800   -0.3320018
O   O      0.1853200    0.6474400    0.5932200   -0.3253550
O   O      0.2468600    0.5694600    0.5794700   -0.3041070
C   C      0.4335500    0.6496800    0.6762600   -0.0027127
C   C      0.4108400    0.6329700    0.3830300   -0.1497024
C   C      0.3735600    0.5956300    0.3829700   -0.1376457
C   C      0.3571000    0.5730600    0.6760700    0.0060125
C   C      0.3806800    0.5881000    0.6356400    0.1491043
H   H      0.3561500    0.5875200    0.4117800    0.1701178
H   H      0.4187700    0.6502900    0.4119000    0.1734125
C   C      0.4186700    0.6261000    0.6357600    0.1312664
N   N      0.3661500    0.5687600    0.5931000    0.2757942
N   N      0.4380400    0.6407500    0.5932600    0.2796942
O   O      0.3348800    0.5696100    0.5794900   -0.2889899
O   O      0.4744000    0.6476800    0.5931100   -0.3079288
O   O      0.3592700    0.5324300    0.5929400   -0.3282400
O   O      0.4371500    0.6720000    0.5797000   -0.3069564
C   C      0.3570800    0.7784100    0.6763100   -0.0543256
C   C      0.3734800    0.7721200    0.3831500   -0.1013430
C   C      0.4107300    0.7720200    0.3831700   -0.1846737
C   C      0.4335400    0.7782200    0.6764400   -0.0736246
C   C      0.4186800    0.7870100    0.6359900    0.0773939
H   H      0.4187900    0.7627800    0.4120600    0.1839419
H   H      0.3561300    0.7629000    0.4120100    0.1272935
C   C      0.3807200    0.7870900    0.6359100    0.0832631
N   N      0.4381700    0.7919500    0.5935200    0.3838218
N   N      0.3662400    0.7919800    0.5933700    0.4135623
O   O      0.4373600    0.7598900    0.5797900   -0.2957807
O   O      0.3593700    0.8214400    0.5932800   -0.3062497
O   O      0.4745000    0.8214200    0.5935200   -0.3262640
O   O      0.3349800    0.7599000    0.5796800    0.0421994
C   C      0.7841900    0.4275300    0.6762000   -0.0154881
C   C      0.7781200    0.4048800    0.3830200   -0.1432611
C   C      0.7780700    0.3675500    0.3830000   -0.1341370
C   C      0.7842200    0.3510500    0.6761800   -0.0114156
C   C      0.7928700    0.3746200    0.6357100    0.1537141
H   H      0.7689000    0.3502300    0.4118800    0.1848178
H   H      0.7688900    0.4129900    0.4118800    0.1786631
C   C      0.7928400    0.4126000    0.6357200    0.1618238
N   N      0.7976900    0.3600600    0.5931800    0.2636533
N   N      0.7977100    0.4320100    0.5932200    0.2640130
O   O      0.7655800    0.3288100    0.5795400   -0.3130895
O   O      0.8271800    0.4683400    0.5931300   -0.3320500
O   O      0.8271400    0.3531700    0.5930600   -0.3253634
O   O      0.7656300    0.4311800    0.5795400   -0.3040924
C   C      0.5790900    0.3510800    0.6760500   -0.0021366
C   C      0.6018100    0.3676400    0.3828600   -0.1499612
C   C      0.6391500    0.4049100    0.3828000   -0.1379800
C   C      0.6556600    0.4276400    0.6759900    0.0064000
C   C      0.6320200    0.4126700    0.6355800    0.1489767
H   H      0.6565100    0.4129300    0.4116600    0.1700708
H   H      0.5938400    0.3502900    0.4117100    0.1733906
C   C      0.5940300    0.3746800    0.6356000    0.1312555
N   N      0.6465900    0.4320200    0.5930500    0.2757277
N   N      0.5746400    0.3600700    0.5931000    0.2798018
O   O      0.6778400    0.4311400    0.5794500   -0.2888561
O   O      0.5383000    0.3531800    0.5929800   -0.3078356
O   O      0.6535100    0.4683700    0.5929000   -0.3281933
O   O      0.5754800    0.3287900    0.5795300   -0.3069292
C   C      0.6556500    0.2223900    0.6762200   -0.0542367
C   C      0.6392300    0.2286200    0.3830800   -0.1001871
C   C      0.6019700    0.2287200    0.3830800   -0.1848185
C   C      0.5792000    0.2225600    0.6763200   -0.0737005
C   C      0.5940400    0.2137100    0.6358900    0.0769302
H   H      0.5940300    0.2381900    0.4118900    0.1837973
H   H      0.6566700    0.2380800    0.4118600    0.1258848
C   C      0.6319900    0.2136300    0.6358300    0.0827957
N   N      0.5745400    0.2087400    0.5934200    0.3823696
N   N      0.6464800    0.2087200    0.5933000    0.4130360
O   O      0.5753600    0.2408000    0.5796600   -0.2959088
O   O      0.6533600    0.1792700    0.5932400   -0.3060644
O   O      0.5382100    0.1792800    0.5934400   -0.3261749
O   O      0.6777200    0.2408000    0.5795900    0.0439788
C   C      0.0943100    0.2419800    0.6690600    0.0141863
C   C      0.1165000    0.2206200    0.6690400   -0.0275862
C   C      0.1600400    0.2419700    0.6690600    0.0527763
C   C      0.1813700    0.2854900    0.6699100   -0.0273868
C   C      0.1600300    0.3076700    0.6704700    0.0592122
C   C      0.1165100    0.2855000    0.6699200   -0.0104587
H   H      0.2128800    0.3012500    0.6700300    0.1523956
H   H      0.1007800    0.3012700    0.6700400    0.1561908
H   H      0.1007500    0.1891300    0.6680000    0.1544112
C   C      0.7647000    0.8466800    0.6690200    0.0561125
C   C      0.7860500    0.8902200    0.6690100   -0.0463781
C   C      0.7647000    0.9124200    0.6690200    0.0487963
C   C      0.7211700    0.8902100    0.6698800   -0.0140648
C   C      0.6989900    0.8466900    0.6704300    0.0195409
C   C      0.7211800    0.8253500    0.6698800   -0.0104778
H   H      0.7054000    0.9059500    0.6700000    0.1526419
H   H      0.7054100    0.7938500    0.6700000    0.1592654
H   H      0.8175400    0.9059700    0.6679600    0.1420569
C   C      0.1600200    0.9124000    0.6690500    0.0625105
C   C      0.1164800    0.8902100    0.6690700   -0.0695076
C   C      0.0942800    0.8466700    0.6690600    0.0097359
C   C      0.1164700    0.8253400    0.6699100   -0.0035641
C   C      0.1599900    0.8466700    0.6704600    0.0684973
C   C      0.1813400    0.8902000    0.6699100    0.0847715
H   H      0.1007300    0.7938300    0.6700300    0.1569796
H   H      0.2128500    0.9059300    0.6700400    0.0143584
H   H      0.1007400    0.9059600    0.6679700    0.1340759
C   C      0.9183800    0.7587200    0.6690400    0.0141768
C   C      0.8961800    0.7800700    0.6690600   -0.0284011
C   C      0.8526400    0.7587200    0.6690400    0.0527638
C   C      0.8313200    0.7151900    0.6698900   -0.0271755
C   C      0.8526600    0.6930100    0.6704400    0.0591620
C   C      0.8961800    0.7151900    0.6698900   -0.0100183
H   H      0.7998100    0.6994200    0.6700000    0.1525600
H   H      0.9119200    0.6994300    0.6700100    0.1564794
H   H      0.9119300    0.8115500    0.6679700    0.1542028
C   C      0.2480100    0.1540300    0.6690700    0.0560486
C   C      0.2266600    0.1104900    0.6690700   -0.0465914
C   C      0.2480200    0.0883000    0.6690300    0.0489280
C   C      0.2915500    0.1105100    0.6698900   -0.0138269
C   C      0.3137200    0.1540300    0.6704500    0.0195891
C   C      0.2915300    0.1753700    0.6699100   -0.0107373
H   H      0.3073200    0.0947700    0.6700100    0.1527711
H   H      0.3072900    0.2068700    0.6700300    0.1591485
H   H      0.1951800    0.0947400    0.6679900    0.1421301
C   C      0.8526600    0.0883300    0.6690400    0.0625211
C   C      0.8962000    0.1105100    0.6690600   -0.0691782
C   C      0.9184000    0.1540500    0.6690700    0.0096616
C   C      0.8962100    0.1753900    0.6699100   -0.0039107
C   C      0.8526900    0.1540500    0.6704600    0.0684832
C   C      0.8313400    0.1105300    0.6699000    0.0844775
H   H      0.9119600    0.2068900    0.6700300    0.1567327
H   H      0.7998400    0.0948000    0.6700200    0.0144354
H   H      0.9119400    0.0947600    0.6679900    0.1338699
C   C      0.3136500    0.5489000    0.6740900    0.0149288
C   C      0.2911200    0.5697300    0.6765800   -0.0639868
C   C      0.2477600    0.5489200    0.6740900    0.0451055
C   C      0.2264400    0.5056000    0.6698600   -0.0110372
C   C      0.2479800    0.4834900    0.6690500    0.0553053
C   C      0.2916200    0.5055800    0.6698400    0.0053064
H   H      0.1949600    0.4899500    0.6696600    0.1650949
H   H      0.3074400    0.4899200    0.6696800    0.1658105
H   H      0.3069000    0.6012600    0.6786300    0.1258525
C   C      0.4577600    0.7590100    0.6744200    0.0797109
C   C      0.4369600    0.7156600    0.6770000   -0.0725039
C   C      0.4577700    0.6931100    0.6743200    0.0697953
C   C      0.5010700    0.7151300    0.6699100    0.0080258
C   C      0.5231700    0.7587700    0.6691000    0.0072012
C   C      0.5010700    0.7803100    0.6700000   -0.0086636
H   H      0.5167300    0.6993000    0.6696200    0.1653103
H   H      0.5167200    0.8117900    0.6697800    0.1528306
H   H      0.4054400    0.6998900    0.6791700    0.1201318
C   C      0.2477400    0.6931900    0.6741900    0.0458359
C   C      0.2911000    0.7157500    0.6767500   -0.1069981
C   C      0.3136300    0.7591200    0.6742800   -0.0027001
C   C      0.2916000    0.7803900    0.6699600    0.1011857
C   C      0.2479500    0.7588200    0.6690500    0.0565540
C   C      0.2264300    0.7151800    0.6697800   -0.0109528
H   H      0.3074000    0.8118700    0.6697800    0.0151489
H   H      0.1949500    0.6993400    0.6696000    0.1664360
H   H      0.3068800    0.7000100    0.6788800    0.1389096
C   C      0.6991100    0.4518000    0.6741000    0.0149921
C   C      0.7216400    0.4309700    0.6766400   -0.0636673
C   C      0.7649900    0.4517600    0.6741000    0.0451742
C   C      0.7863100    0.4950700    0.6697900   -0.0108393
C   C      0.7647900    0.5171900    0.6689700    0.0552694
C   C      0.7211400    0.4951100    0.6697000    0.0055143
H   H      0.8178000    0.5107200    0.6697100    0.1650981
H   H      0.7053400    0.5107800    0.6695400    0.1658354
H   H      0.7058600    0.3994400    0.6787900    0.1257241
C   C      0.5549700    0.2417500    0.6742700    0.0799327
C   C      0.5757500    0.2851100    0.6768400   -0.0726154
C   C      0.5549200    0.3076300    0.6742100    0.0695151
C   C      0.5116200    0.2856000    0.6697700    0.0080003
C   C      0.4895400    0.2419500    0.6690300    0.0071354
C   C      0.5116600    0.2204300    0.6698700   -0.0085813
H   H      0.4959400    0.3014000    0.6695700    0.1652700
H   H      0.4960100    0.1889500    0.6697700    0.1528497
H   H      0.6072800    0.3008900    0.6789500    0.1201487
C   C      0.7649900    0.3076000    0.6741200    0.0456092
C   C      0.7216300    0.2850400    0.6767100   -0.1068748
C   C      0.6991000    0.2416800    0.6741900   -0.0026350
C   C      0.7211300    0.2204000    0.6698400    0.1015506
C   C      0.7647800    0.2419600    0.6690200    0.0566980
C   C      0.7863000    0.2856000    0.6698100   -0.0110000
H   H      0.7053200    0.1889200    0.6696900    0.0150710
H   H      0.8177900    0.3014400    0.6696500    0.1663064
H   H      0.7058600    0.3007900    0.6788100    0.1384615
C   C      0.2260200    0.4396100    0.6709900   -0.0285876
C   C      0.2146800    0.4169400    0.9636900   -0.1348066
C   C      0.1930300    0.3736600    0.9641100   -0.1330160
C   C      0.1819900    0.3515800    0.6718200   -0.0248110
C   C      0.1932100    0.3739900    0.7131800    0.1536480
H   H      0.1853500    0.3583100    0.9339500    0.1963388
H   H      0.2221300    0.4318500    0.9332700    0.1929094
C   C      0.2151200    0.4177800    0.7127700    0.1529925
N   N      0.1834800    0.3545100    0.7560600    0.2717678
N   N      0.2251200    0.4377600    0.7553700    0.2683649
O   O      0.1454100    0.3330700    0.7625100   -0.3150846
O   O      0.2085000    0.4592300    0.7616600   -0.3392066
O   O      0.2001000    0.3330600    0.7624900   -0.3389386
O   O      0.2632100    0.4592100    0.7616500   -0.3169204
C   C      0.5670600    0.7807200    0.6710000   -0.0049017
C   C      0.5897100    0.7920300    0.9636900   -0.1152305
C   C      0.6329900    0.8136800    0.9640900   -0.1150040
C   C      0.6550900    0.8247400    0.6717900   -0.0023952
C   C      0.6327000    0.8135500    0.7131500    0.1263253
H   H      0.6483300    0.8213400    0.9339200    0.1793111
H   H      0.5747900    0.7845700    0.9332700    0.1762158
C   C      0.5889100    0.7916500    0.7127700    0.1259159
N   N      0.6521900    0.8233000    0.7560300    0.2702929
N   N      0.5689400    0.7816700    0.7553800    0.2684645
O   O      0.6736400    0.8066900    0.7624700   -0.3044668
O   O      0.5474900    0.7435800    0.7616800   -0.3125788
O   O      0.6736300    0.8613800    0.7624600   -0.3172673
O   O      0.5475000    0.7983100    0.7616900   -0.3139922
C   C      0.2259800    0.7807400    0.6709700   -0.0358709
C   C      0.2146700    0.7920800    0.9636800   -0.1381139
C   C      0.1930100    0.8137100    0.9640900   -0.1281518
C   C      0.1819400    0.8247200    0.6718000   -0.0244967
C   C      0.1931300    0.8135000    0.7131600    0.1445416
H   H      0.1853500    0.8214000    0.9339300    0.2051421
H   H      0.2221400    0.7846500    0.9332500    0.1956631
C   C      0.2150400    0.7916200    0.7127500    0.1385639
N   N      0.1833700    0.8232200    0.7560400    0.2919610
N   N      0.2250100    0.7816100    0.7553600    0.2850042
O   O      0.1999800    0.8612800    0.7625100   -0.2972118
O   O      0.2631000    0.7982700    0.7616800   -0.2750227
O   O      0.1452900    0.8065800    0.7624700   -0.3119765
O   O      0.2084100    0.7435300    0.7616200   -0.3389920
C   C      0.7867400    0.5610800    0.6709100   -0.0286515
C   C      0.7980700    0.5837500    0.9636300   -0.1346284
C   C      0.8196900    0.6270300    0.9640500   -0.1328684
C   C      0.8307100    0.6491100    0.6717700   -0.0248879
C   C      0.8195100    0.6266900    0.7131200    0.1536267
H   H      0.8273700    0.6423900    0.9339000    0.1964178
H   H      0.7906200    0.5688600    0.9331900    0.1929368
C   C      0.7976300    0.5828900    0.7127000    0.1529630
N   N      0.8292300    0.6461600    0.7560100    0.2718539
N   N      0.7876300    0.5629000    0.7553000    0.2684065
O   O      0.8673000    0.6676100    0.7624700   -0.3150371
O   O      0.8042700    0.5414600    0.7615900   -0.3393400
O   O      0.8125900    0.6675800    0.7624500   -0.3388590
O   O      0.7495400    0.5414300    0.7615700   -0.3168911
C   C      0.4456500    0.2200000    0.6709600   -0.0049425
C   C      0.4229900    0.2086600    0.9636600   -0.1152505
C   C      0.3797100    0.1870200    0.9640800   -0.1150111
C   C      0.3576200    0.1759900    0.6717900   -0.0023609
C   C      0.3800300    0.1872000    0.7131500    0.1263812
H   H      0.3643600    0.1793400    0.9339200    0.1793406
H   H      0.4378900    0.2161000    0.9332400    0.1762314
C   C      0.4238300    0.2090900    0.7127400    0.1258930
N   N      0.3605600    0.1774700    0.7560300    0.2701943
N   N      0.4438100    0.2191000    0.7553400    0.2684401
O   O      0.3391100    0.1940900    0.7624700   -0.3045110
O   O      0.4652700    0.2571900    0.7616100   -0.3125847
O   O      0.3391100    0.1393900    0.7624800   -0.3171775
O   O      0.4652600    0.2024700    0.7616500   -0.3139483
C   C      0.7867300    0.2200300    0.6709600   -0.0358415
C   C      0.7980400    0.2086700    0.9636600   -0.1380736
C   C      0.8196800    0.1870300    0.9640800   -0.1284018
C   C      0.8307500    0.1760200    0.6718000   -0.0244947
C   C      0.8195600    0.1872400    0.7131500    0.1445979
H   H      0.8273400    0.1793300    0.9339300    0.2050270
H   H      0.7905700    0.2161000    0.9332400    0.1957944
C   C      0.7976600    0.2091400    0.7127400    0.1385334
N   N      0.8293200    0.1775200    0.7560400    0.2919958
N   N      0.7876900    0.2191500    0.7553400    0.2848993
O   O      0.8127000    0.1394600    0.7625000   -0.2973315
O   O      0.7496000    0.2025200    0.7616500   -0.2750049
O   O      0.8673900    0.1941600    0.7624700   -0.3121532
O   O      0.8043200    0.2572400    0.7616100   -0.3390914
C   C      0.1820700    0.2200800    0.0005900   -0.0185271
C   C      0.1912200    0.2068300    0.7080000   -0.1382828
C   C      0.2128600    0.1852000    0.7080000   -0.1486896
C   C      0.2261200    0.1760500    0.0006000   -0.0210026
C   C      0.2170900    0.1891600    0.9591300    0.1484110
H   H      0.2189500    0.1761800    0.7382500    0.1758797
H   H      0.1821900    0.2129100    0.7382500    0.1833750
C   C      0.1952000    0.2110700    0.9591200    0.1489122
N   N      0.2287100    0.1810700    0.9164500    0.2846817
N   N      0.1871200    0.2226900    0.9164500    0.2703195
O   O      0.2121900    0.1432800    0.9083500   -0.3098016
O   O      0.2037800    0.2609700    0.9119100   -0.3406955
O   O      0.2669900    0.1977400    0.9119000   -0.3018590
O   O      0.1493400    0.2061600    0.9083100   -0.2860094
C   C      0.7865800    0.9563300    0.0005500   -0.0275825
C   C      0.8001500    0.9787200    0.7079300   -0.1101817
C   C      0.8218000    0.0220000    0.7079300   -0.1962086
C   C      0.8306200    0.0444100    0.0005600   -0.0674404
C   C      0.8172000    0.0222800    0.9591200    0.3045017
H   H      0.8310500    0.0371100    0.7381700    0.1468649
H   H      0.7943000    0.9636100    0.7381600    0.1648510
C   C      0.7953000    0.9784800    0.9591100    0.1973510
N   N      0.8250100    0.0419900    0.9164600   -0.0860364
N   N      0.7834000    0.9587700    0.9164500    0.2653684
O   O      0.8627400    0.0633100    0.9080900   -0.3239308
O   O      0.7450900    0.9372300    0.9121600   -0.3195879
O   O      0.8082500    0.0635400    0.9121700   -0.2435083
O   O      0.7998100    0.9374500    0.9080700   -0.3071047
C   C      0.0503700    0.8246500    0.0005700   -0.0218882
C   C      0.0279600    0.8158400    0.7079500   -0.0879610
C   C      0.9846900    0.7942000    0.7079500   -0.1124960
C   C      0.9622900    0.7806100    0.0005600   -0.0058709
C   C      0.9844300    0.7893200    0.9591300    0.1309192
H   H      0.9695700    0.7883600    0.7381700    0.1676324
H   H      0.0430700    0.8251100    0.7381800    0.1656228
C   C      0.0282400    0.8112200    0.9591300    0.2030993
N   N      0.9647300    0.7774000    0.9164700    0.2726598
N   N      0.0479500    0.8190300    0.9164800    0.2986201
O   O      0.9433900    0.7937800    0.9080800   -0.2836020
O   O      0.0694800    0.8022400    0.9121900   -0.3081463
O   O      0.9432000    0.7390800    0.9121900   -0.3129315
O   O      0.0693000    0.8567600    0.9081100   -0.3021768
C   C      0.8306100    0.7806000    0.0005600   -0.0183125
C   C      0.8216200    0.7940100    0.7079600   -0.1382140
C   C      0.7999800    0.8156500    0.7079500   -0.1487240
C   C      0.7865900    0.8246500    0.0005500   -0.0211036
C   C      0.7954700    0.8114000    0.9591000    0.1484168
H   H      0.7940000    0.8247900    0.7381900    0.1758293
H   H      0.8307400    0.7880300    0.7382000    0.1832048
C   C      0.8173700    0.7894900    0.9591000    0.1490543
N   N      0.7837300    0.8193500    0.9164300    0.2848156
N   N      0.8253200    0.7777300    0.9164400    0.2701504
O   O      0.8001900    0.8571100    0.9082000   -0.3094905
O   O      0.8086000    0.7394400    0.9120100   -0.3408063
O   O      0.7454300    0.8026400    0.9120000   -0.3019772
O   O      0.8630800    0.7941900    0.9082200   -0.2863325
C   C      0.2261400    0.0443900    0.0005600   -0.0275202
C   C      0.2123900    0.0220000    0.7079300   -0.1102712
C   C      0.1907300    0.9787200    0.7079300   -0.1948212
C   C      0.1820600    0.9563100    0.0005700   -0.0674987
C   C      0.1956200    0.9784500    0.9591300    0.3059449
H   H      0.1813700    0.9636100    0.7381500    0.1460474
H   H      0.2181300    0.0371000    0.7381400    0.1647984
C   C      0.2175500    0.0222500    0.9591300    0.1973261
N   N      0.1879300    0.9587300    0.9164900   -0.0890878
N   N      0.2295900    0.0419500    0.9164800    0.2654328
O   O      0.1502300    0.9373700    0.9080100   -0.3235337
O   O      0.2679200    0.0634400    0.9123200   -0.3197817
O   O      0.2047500    0.9372200    0.9123200   -0.2432063
O   O      0.2132700    0.0633200    0.9079800   -0.3068507
C   C      0.9623100    0.1760700    0.0005900   -0.0221385
C   C      0.9847200    0.1851800    0.7080000   -0.0880329
C   C      0.0280000    0.2068100    0.7079900   -0.1123590
C   C      0.0504000    0.2201000    0.0005900   -0.0060736
C   C      0.0282500    0.2111300    0.9591300    0.1309933
H   H      0.0431100    0.2128500    0.7382400    0.1677615
H   H      0.9696100    0.1761200    0.7382500    0.1655927
C   C      0.9844500    0.1892300    0.9591300    0.2030809
N   N      0.0479500    0.2227900    0.9164500    0.2728586
N   N      0.9647400    0.1811800    0.9164600    0.2989195
O   O      0.0692000    0.2062600    0.9082800   -0.2835925
O   O      0.9431400    0.1978600    0.9119400   -0.3078996
O   O      0.0695800    0.2610700    0.9119500   -0.3125499
O   O      0.9434700    0.1434000    0.9083100   -0.3026527
C   C      0.2285200    0.5731200    0.0094100   -0.0149458
C   C      0.2347300    0.5958600    0.7162100   -0.1430849
C   C      0.2348000    0.6332000    0.7162100   -0.1340282
C   C      0.2285200    0.6497500    0.0094600   -0.0110256
C   C      0.2197000    0.6260400    0.9690800    0.1537373
H   H      0.2442000    0.6505500    0.7450600    0.1842908
H   H      0.2441900    0.5879100    0.7450200    0.1780803
C   C      0.2197300    0.5880600    0.9690500    0.1618992
N   N      0.2147800    0.6405600    0.9265800    0.2635439
N   N      0.2147900    0.5686300    0.9265400    0.2642120
O   O      0.2468600    0.6718100    0.9128800   -0.3132706
O   O      0.1853400    0.5322800    0.9265100   -0.3320031
O   O      0.1853200    0.6474400    0.9265500   -0.3253506
O   O      0.2468600    0.5694600    0.9128100   -0.3041224
C   C      0.4335500    0.6496800    0.0095900   -0.0027055
C   C      0.4108400    0.6329700    0.7163600   -0.1497002
C   C      0.3735600    0.5956300    0.7163000   -0.1376446
C   C      0.3571000    0.5730600    0.0094100    0.0059944
C   C      0.3806800    0.5881000    0.9689800    0.1490823
H   H      0.3561500    0.5875200    0.7451100    0.1701196
H   H      0.4187700    0.6502900    0.7452300    0.1734093
C   C      0.4186700    0.6261000    0.9691000    0.1312525
N   N      0.3661500    0.5687600    0.9264400    0.2757784
N   N      0.4380400    0.6407500    0.9265900    0.2797420
O   O      0.3348800    0.5696100    0.9128200   -0.2889673
O   O      0.4744000    0.6476800    0.9264400   -0.3079269
O   O      0.3592700    0.5324300    0.9262700   -0.3282218
O   O      0.4371500    0.6720000    0.9130400   -0.3069749
C   C      0.3570800    0.7784100    0.0096500   -0.0543410
C   C      0.3734800    0.7721200    0.7164800   -0.1013452
C   C      0.4107300    0.7720200    0.7165000   -0.1846415
C   C      0.4335400    0.7782200    0.0097700   -0.0736379
C   C      0.4186800    0.7870100    0.9693200    0.0774216
H   H      0.4187900    0.7627800    0.7454000    0.1839297
H   H      0.3561300    0.7629000    0.7453400    0.1272892
C   C      0.3807200    0.7870900    0.9692400    0.0832846
N   N      0.4381700    0.7919500    0.9268500    0.3838432
N   N      0.3662400    0.7919800    0.9267100    0.4134862
O   O      0.4373600    0.7598900    0.9131300   -0.2958045
O   O      0.3593700    0.8214400    0.9266100   -0.3062248
O   O      0.4745000    0.8214200    0.9268500   -0.3262621
O   O      0.3349800    0.7599000    0.9130200    0.0421970
C   C      0.7841900    0.4275300    0.0095400   -0.0154935
C   C      0.7781200    0.4048800    0.7163500   -0.1432640
C   C      0.7780700    0.3675500    0.7163400   -0.1341340
C   C      0.7842200    0.3510500    0.0095100   -0.0114241
C   C      0.7928700    0.3746200    0.9690400    0.1537331
H   H      0.7689000    0.3502300    0.7452200    0.1848196
H   H      0.7688900    0.4129900    0.7452100    0.1786609
C   C      0.7928400    0.4126000    0.9690500    0.1618228
N   N      0.7976900    0.3600600    0.9265200    0.2636084
N   N      0.7977100    0.4320100    0.9265500    0.2640285
O   O      0.7655800    0.3288100    0.9128800   -0.3130953
O   O      0.8271800    0.4683400    0.9264600   -0.3320458
O   O      0.8271400    0.3531700    0.9263900   -0.3253472
O   O      0.7656300    0.4311800    0.9128700   -0.3040891
C   C      0.5790900    0.3510800    0.0093800   -0.0021068
C   C      0.6018100    0.3676400    0.7161900   -0.1499551
C   C      0.6391500    0.4049100    0.7161300   -0.1379742
C   C      0.6556600    0.4276400    0.0093200    0.0063960
C   C      0.6320200    0.4126700    0.9689100    0.1490166
H   H      0.6565100    0.4129300    0.7449900    0.1700667
H   H      0.5938400    0.3502900    0.7450400    0.1733877
C   C      0.5940300    0.3746800    0.9689400    0.1312396
N   N      0.6465900    0.4320200    0.9263900    0.2757025
N   N      0.5746400    0.3600700    0.9264400    0.2797982
O   O      0.6778400    0.4311400    0.9127900   -0.2888604
O   O      0.5383000    0.3531800    0.9263200   -0.3078361
O   O      0.6535100    0.4683700    0.9262400   -0.3281948
O   O      0.5754800    0.3287900    0.9128700   -0.3069302
C   C      0.6556500    0.2223900    0.0095600   -0.0542403
C   C      0.6392300    0.2286200    0.7164100   -0.1001799
C   C      0.6019700    0.2287200    0.7164200   -0.1848244
C   C      0.5792000    0.2225600    0.0096600   -0.0736977
C   C      0.5940400    0.2137100    0.9692300    0.0768837
H   H      0.5940300    0.2381900    0.7452200    0.1838035
H   H      0.6566700    0.2380800    0.7452000    0.1258857
C   C      0.6319900    0.2136300    0.9691600    0.0828263
N   N      0.5745400    0.2087400    0.9267500    0.3824116
N   N      0.6464800    0.2087200    0.9266300    0.4130418
O   O      0.5753600    0.2408000    0.9130000   -0.2959289
O   O      0.6533600    0.1792700    0.9265700   -0.3060582
O   O      0.5382100    0.1792800    0.9267700   -0.3261718
O   O      0.6777200    0.2408000    0.9129200    0.0439794
