
#######################################################################
#
#                 Cambridge Crystallographic Data Centre
#                                CCDC 
#
#######################################################################
#
# If this CIF has been generated from an entry in the Cambridge 
# Structural Database, then it will include bibliographic, chemical, 
# crystal, experimental, refinement or atomic coordinate data resulting 
# from the CCDC's data processing and validation procedures.
#
#######################################################################

data_5
_symmetry_cell_setting           tetragonal
_symmetry_space_group_name_H-M   'P 4/n b m'
_symmetry_Int_Tables_number      125
_space_group_name_Hall           '-P 4a 2b'
loop_
_symmetry_equiv_pos_site_id
_symmetry_equiv_pos_as_xyz
1 x,y,z
2 1/2-x,1/2-y,z
3 1/2-y,x,z
4 y,1/2-x,z
5 1/2-x,y,-z
6 x,1/2-y,-z
7 y,x,-z
8 1/2-y,1/2-x,-z
9 -x,-y,-z
10 1/2+x,1/2+y,-z
11 1/2+y,-x,-z
12 -y,1/2+x,-z
13 1/2+x,-y,z
14 -x,1/2+y,z
15 -y,-x,z
16 1/2+y,1/2+x,z
_cell_length_a                   15.4508(7)
_cell_length_b                   15.4508(7)
_cell_length_c                   9.6198(6)
_cell_angle_alpha                90.00
_cell_angle_beta                 90.00
_cell_angle_gamma                90.00
_cell_volume                     2296.51
loop_
_atom_site_label
_atom_site_type_symbol
_atom_site_fract_x
_atom_site_fract_y
_atom_site_fract_z
Zn1 Zn 0.2500 0.2500 0.34663(4)
F1 F 0.11397(14) 0.49295(15) 0.7121(2)
O1 O 0.17296(11) 0.35399(11) 0.38743(17)
N1 N 0.2500 0.2500 0.1334(4)
C1 C 0.13407(14) 0.36593(14) 0.5000
C2 C 0.06487(15) 0.43513(15) 0.5000
C3 C 0.0576(2) 0.4947(2) 0.6065(3)
C1N C 0.1607(12) 0.264(5) 0.0804(13)
C2N C 0.329(4) 0.293(4) 0.079(2)
F1 F 0.00705(15) 0.38603(14) 0.2879(2)
O1 O 0.14601(11) 0.32704(11) 0.61257(17)
C3 C 0.0053(2) 0.4424(2) 0.3935(3)
F1 F -0.11397(14) 0.50705(15) 0.2879(2)
O1 O -0.17296(11) 0.64601(11) 0.61257(17)
C1 C -0.13407(14) 0.63407(14) 0.5000
C2 C -0.06487(15) 0.56487(15) 0.5000
C3 C -0.0576(2) 0.5053(2) 0.3935(3)
F1 F -0.00705(15) 0.61397(14) 0.7121(2)
O1 O -0.14601(11) 0.67296(11) 0.38743(17)
C3 C -0.0053(2) 0.5576(2) 0.6065(3)
C1N C 0.3393(12) 0.236(5) 0.0804(13)
C2N C 0.171(4) 0.207(4) 0.079(2)
C1N C 0.236(5) 0.1607(12) 0.0804(13)
C2N C 0.207(4) 0.329(4) 0.079(2)
C1N C 0.264(5) 0.3393(12) 0.0804(13)
C2N C 0.293(4) 0.171(4) 0.079(2)
N1 N 0.2500 0.2500 -0.1334(4)
C1N C 0.3393(12) 0.264(5) -0.0804(13)
C2N C 0.171(4) 0.293(4) -0.079(2)
C1N C 0.1607(12) 0.236(5) -0.0804(13)
C2N C 0.329(4) 0.207(4) -0.079(2)
C1N C 0.264(5) 0.1607(12) -0.0804(13)
C2N C 0.293(4) 0.329(4) -0.079(2)
C1N C 0.236(5) 0.3393(12) -0.0804(13)
C2N C 0.207(4) 0.171(4) -0.079(2)
F1 F 0.38603(14) 0.00705(15) 0.7121(2)
O1 O 0.32704(11) 0.14601(11) 0.38743(17)
C1 C 0.36593(14) 0.13407(14) 0.5000
C2 C 0.43513(15) 0.06487(15) 0.5000
C3 C 0.4424(2) 0.0053(2) 0.6065(3)
F1 F 0.49295(15) 0.11397(14) 0.2879(2)
O1 O 0.35399(11) 0.17296(11) 0.61257(17)
C3 C 0.4947(2) 0.0576(2) 0.3935(3)
F1 F 0.61397(14) -0.00705(15) 0.2879(2)
O1 O 0.67296(11) -0.14601(11) 0.61257(17)
C1 C 0.63407(14) -0.13407(14) 0.5000
C2 C 0.56487(15) -0.06487(15) 0.5000
C3 C 0.5576(2) -0.0053(2) 0.3935(3)
F1 F 0.50705(15) -0.11397(14) 0.7121(2)
O1 O 0.64601(11) -0.17296(11) 0.38743(17)
C3 C 0.5053(2) -0.0576(2) 0.6065(3)
Zn1 Zn 0.2500 0.2500 -0.34663(4)
Zn1 Zn 0.2500 0.2500 0.65337(4)
Zn1 Zn -0.2500 0.7500 0.65337(4)
Zn1 Zn 0.7500 -0.2500 0.65337(4)
Zn1 Zn -0.2500 0.7500 0.34663(4)
Zn1 Zn 0.7500 -0.2500 0.34663(4)
O1 O 0.14601(11) 0.17296(11) 0.38743(17)
O1 O 0.35399(11) 0.32704(11) 0.38743(17)
O1 O 0.32704(11) 0.35399(11) -0.38743(17)
O1 O 0.17296(11) 0.14601(11) -0.38743(17)
O1 O 0.35399(11) 0.17296(11) -0.38743(17)
O1 O 0.14601(11) 0.32704(11) -0.38743(17)
Zn1 Zn 0.2500 0.2500 1.34663(4)
F1 F 0.11397(14) 0.49295(15) 1.7121(2)
O1 O 0.17296(11) 0.35399(11) 1.38743(17)
N1 N 0.2500 0.2500 1.1334(4)
C1 C 0.13407(14) 0.36593(14) 1.5000
C2 C 0.06487(15) 0.43513(15) 1.5000
C3 C 0.0576(2) 0.4947(2) 1.6065(3)
C1N C 0.1607(12) 0.264(5) 1.0804(13)
C2N C 0.329(4) 0.293(4) 1.079(2)
F1 F 0.00705(15) 0.38603(14) 1.2879(2)
O1 O 0.14601(11) 0.32704(11) 1.61257(17)
C3 C 0.0053(2) 0.4424(2) 1.3935(3)
F1 F -0.11397(14) 0.50705(15) 1.2879(2)
O1 O -0.17296(11) 0.64601(11) 1.61257(17)
C1 C -0.13407(14) 0.63407(14) 1.5000
C2 C -0.06487(15) 0.56487(15) 1.5000
C3 C -0.0576(2) 0.5053(2) 1.3935(3)
F1 F -0.00705(15) 0.61397(14) 1.7121(2)
O1 O -0.14601(11) 0.67296(11) 1.38743(17)
C3 C -0.0053(2) 0.5576(2) 1.6065(3)
C1N C 0.3393(12) 0.236(5) 1.0804(13)
C2N C 0.171(4) 0.207(4) 1.079(2)
C1N C 0.236(5) 0.1607(12) 1.0804(13)
C2N C 0.207(4) 0.329(4) 1.079(2)
C1N C 0.264(5) 0.3393(12) 1.0804(13)
C2N C 0.293(4) 0.171(4) 1.079(2)
N1 N 0.2500 0.2500 0.8666(4)
C1N C 0.3393(12) 0.264(5) 0.9196(13)
C2N C 0.171(4) 0.293(4) 0.921(2)
C1N C 0.1607(12) 0.236(5) 0.9196(13)
C2N C 0.329(4) 0.207(4) 0.921(2)
C1N C 0.264(5) 0.1607(12) 0.9196(13)
C2N C 0.293(4) 0.329(4) 0.921(2)
C1N C 0.236(5) 0.3393(12) 0.9196(13)
C2N C 0.207(4) 0.171(4) 0.921(2)
F1 F 0.38603(14) 0.00705(15) 1.7121(2)
O1 O 0.32704(11) 0.14601(11) 1.38743(17)
C1 C 0.36593(14) 0.13407(14) 1.5000
C2 C 0.43513(15) 0.06487(15) 1.5000
C3 C 0.4424(2) 0.0053(2) 1.6065(3)
F1 F 0.49295(15) 0.11397(14) 1.2879(2)
O1 O 0.35399(11) 0.17296(11) 1.61257(17)
C3 C 0.4947(2) 0.0576(2) 1.3935(3)
F1 F 0.61397(14) -0.00705(15) 1.2879(2)
O1 O 0.67296(11) -0.14601(11) 1.61257(17)
C1 C 0.63407(14) -0.13407(14) 1.5000
C2 C 0.56487(15) -0.06487(15) 1.5000
C3 C 0.5576(2) -0.0053(2) 1.3935(3)
F1 F 0.50705(15) -0.11397(14) 1.7121(2)
O1 O 0.64601(11) -0.17296(11) 1.38743(17)
C3 C 0.5053(2) -0.0576(2) 1.6065(3)
Zn1 Zn 0.2500 0.2500 1.65337(4)
Zn1 Zn -0.2500 0.7500 1.65337(4)
Zn1 Zn 0.7500 -0.2500 1.65337(4)
Zn1 Zn -0.2500 0.7500 1.34663(4)
Zn1 Zn 0.7500 -0.2500 1.34663(4)
O1 O 0.14601(11) 0.17296(11) 1.38743(17)
O1 O 0.35399(11) 0.32704(11) 1.38743(17)
O1 O 0.32704(11) 0.35399(11) 0.61257(17)
O1 O 0.17296(11) 0.14601(11) 0.61257(17)
Zn1 Zn 0.2500 1.2500 0.34663(4)
F1 F 0.11397(14) 1.49295(15) 0.7121(2)
O1 O 0.17296(11) 1.35399(11) 0.38743(17)
N1 N 0.2500 1.2500 0.1334(4)
C1 C 0.13407(14) 1.36593(14) 0.5000
C2 C 0.06487(15) 1.43513(15) 0.5000
C3 C 0.0576(2) 1.4947(2) 0.6065(3)
C1N C 0.1607(12) 1.264(5) 0.0804(13)
C2N C 0.329(4) 1.293(4) 0.079(2)
F1 F 0.00705(15) 1.38603(14) 0.2879(2)
O1 O 0.14601(11) 1.32704(11) 0.61257(17)
C3 C 0.0053(2) 1.4424(2) 0.3935(3)
F1 F -0.11397(14) 1.50705(15) 0.2879(2)
O1 O -0.17296(11) 1.64601(11) 0.61257(17)
C1 C -0.13407(14) 1.63407(14) 0.5000
C2 C -0.06487(15) 1.56487(15) 0.5000
C3 C -0.0576(2) 1.5053(2) 0.3935(3)
F1 F -0.00705(15) 1.61397(14) 0.7121(2)
O1 O -0.14601(11) 1.67296(11) 0.38743(17)
C3 C -0.0053(2) 1.5576(2) 0.6065(3)
C1N C 0.3393(12) 1.236(5) 0.0804(13)
C2N C 0.171(4) 1.207(4) 0.079(2)
C1N C 0.236(5) 1.1607(12) 0.0804(13)
C2N C 0.207(4) 1.329(4) 0.079(2)
C1N C 0.264(5) 1.3393(12) 0.0804(13)
C2N C 0.293(4) 1.171(4) 0.079(2)
N1 N 0.2500 1.2500 -0.1334(4)
C1N C 0.3393(12) 1.264(5) -0.0804(13)
C2N C 0.171(4) 1.293(4) -0.079(2)
C1N C 0.1607(12) 1.236(5) -0.0804(13)
C2N C 0.329(4) 1.207(4) -0.079(2)
C1N C 0.264(5) 1.1607(12) -0.0804(13)
C2N C 0.293(4) 1.329(4) -0.079(2)
C1N C 0.236(5) 1.3393(12) -0.0804(13)
C2N C 0.207(4) 1.171(4) -0.079(2)
F1 F 0.38603(14) 1.00705(15) 0.7121(2)
O1 O 0.32704(11) 1.14601(11) 0.38743(17)
C1 C 0.36593(14) 1.13407(14) 0.5000
C2 C 0.43513(15) 1.06487(15) 0.5000
C3 C 0.4424(2) 1.0053(2) 0.6065(3)
F1 F 0.49295(15) 1.11397(14) 0.2879(2)
O1 O 0.35399(11) 1.17296(11) 0.61257(17)
C3 C 0.4947(2) 1.0576(2) 0.3935(3)
F1 F 0.61397(14) 0.99295(15) 0.2879(2)
O1 O 0.67296(11) 0.85399(11) 0.61257(17)
C1 C 0.63407(14) 0.86593(14) 0.5000
C2 C 0.56487(15) 0.93513(15) 0.5000
C3 C 0.5576(2) 0.9947(2) 0.3935(3)
F1 F 0.50705(15) 0.88603(14) 0.7121(2)
O1 O 0.64601(11) 0.82704(11) 0.38743(17)
C3 C 0.5053(2) 0.9424(2) 0.6065(3)
Zn1 Zn 0.2500 1.2500 -0.34663(4)
Zn1 Zn 0.2500 1.2500 0.65337(4)
Zn1 Zn -0.2500 1.7500 0.65337(4)
Zn1 Zn 0.7500 0.7500 0.65337(4)
Zn1 Zn -0.2500 1.7500 0.34663(4)
Zn1 Zn 0.7500 0.7500 0.34663(4)
O1 O 0.14601(11) 1.17296(11) 0.38743(17)
O1 O 0.35399(11) 1.32704(11) 0.38743(17)
O1 O 0.32704(11) 1.35399(11) -0.38743(17)
O1 O 0.17296(11) 1.14601(11) -0.38743(17)
O1 O 0.35399(11) 1.17296(11) -0.38743(17)
O1 O 0.14601(11) 1.32704(11) -0.38743(17)
Zn1 Zn 0.2500 1.2500 1.34663(4)
F1 F 0.11397(14) 1.49295(15) 1.7121(2)
O1 O 0.17296(11) 1.35399(11) 1.38743(17)
N1 N 0.2500 1.2500 1.1334(4)
C1 C 0.13407(14) 1.36593(14) 1.5000
C2 C 0.06487(15) 1.43513(15) 1.5000
C3 C 0.0576(2) 1.4947(2) 1.6065(3)
C1N C 0.1607(12) 1.264(5) 1.0804(13)
C2N C 0.329(4) 1.293(4) 1.079(2)
F1 F 0.00705(15) 1.38603(14) 1.2879(2)
O1 O 0.14601(11) 1.32704(11) 1.61257(17)
C3 C 0.0053(2) 1.4424(2) 1.3935(3)
F1 F -0.11397(14) 1.50705(15) 1.2879(2)
O1 O -0.17296(11) 1.64601(11) 1.61257(17)
C1 C -0.13407(14) 1.63407(14) 1.5000
C2 C -0.06487(15) 1.56487(15) 1.5000
C3 C -0.0576(2) 1.5053(2) 1.3935(3)
F1 F -0.00705(15) 1.61397(14) 1.7121(2)
O1 O -0.14601(11) 1.67296(11) 1.38743(17)
C3 C -0.0053(2) 1.5576(2) 1.6065(3)
C1N C 0.3393(12) 1.236(5) 1.0804(13)
C2N C 0.171(4) 1.207(4) 1.079(2)
C1N C 0.236(5) 1.1607(12) 1.0804(13)
C2N C 0.207(4) 1.329(4) 1.079(2)
C1N C 0.264(5) 1.3393(12) 1.0804(13)
C2N C 0.293(4) 1.171(4) 1.079(2)
N1 N 0.2500 1.2500 0.8666(4)
C1N C 0.3393(12) 1.264(5) 0.9196(13)
C2N C 0.171(4) 1.293(4) 0.921(2)
C1N C 0.1607(12) 1.236(5) 0.9196(13)
C2N C 0.329(4) 1.207(4) 0.921(2)
C1N C 0.264(5) 1.1607(12) 0.9196(13)
C2N C 0.293(4) 1.329(4) 0.921(2)
C1N C 0.236(5) 1.3393(12) 0.9196(13)
C2N C 0.207(4) 1.171(4) 0.921(2)
F1 F 0.38603(14) 1.00705(15) 1.7121(2)
O1 O 0.32704(11) 1.14601(11) 1.38743(17)
C1 C 0.36593(14) 1.13407(14) 1.5000
C2 C 0.43513(15) 1.06487(15) 1.5000
C3 C 0.4424(2) 1.0053(2) 1.6065(3)
F1 F 0.49295(15) 1.11397(14) 1.2879(2)
O1 O 0.35399(11) 1.17296(11) 1.61257(17)
C3 C 0.4947(2) 1.0576(2) 1.3935(3)
F1 F 0.61397(14) 0.99295(15) 1.2879(2)
O1 O 0.67296(11) 0.85399(11) 1.61257(17)
C1 C 0.63407(14) 0.86593(14) 1.5000
C2 C 0.56487(15) 0.93513(15) 1.5000
C3 C 0.5576(2) 0.9947(2) 1.3935(3)
F1 F 0.50705(15) 0.88603(14) 1.7121(2)
O1 O 0.64601(11) 0.82704(11) 1.38743(17)
C3 C 0.5053(2) 0.9424(2) 1.6065(3)
Zn1 Zn 0.2500 1.2500 1.65337(4)
Zn1 Zn -0.2500 1.7500 1.65337(4)
Zn1 Zn 0.7500 0.7500 1.65337(4)
Zn1 Zn -0.2500 1.7500 1.34663(4)
Zn1 Zn 0.7500 0.7500 1.34663(4)
O1 O 0.14601(11) 1.17296(11) 1.38743(17)
O1 O 0.35399(11) 1.32704(11) 1.38743(17)
O1 O 0.32704(11) 1.35399(11) 0.61257(17)
O1 O 0.17296(11) 1.14601(11) 0.61257(17)
Zn1 Zn 1.2500 0.2500 0.34663(4)
F1 F 1.11397(14) 0.49295(15) 0.7121(2)
O1 O 1.17296(11) 0.35399(11) 0.38743(17)
N1 N 1.2500 0.2500 0.1334(4)
C1 C 1.13407(14) 0.36593(14) 0.5000
C2 C 1.06487(15) 0.43513(15) 0.5000
C3 C 1.0576(2) 0.4947(2) 0.6065(3)
C1N C 1.1607(12) 0.264(5) 0.0804(13)
C2N C 1.329(4) 0.293(4) 0.079(2)
F1 F 1.00705(15) 0.38603(14) 0.2879(2)
O1 O 1.14601(11) 0.32704(11) 0.61257(17)
C3 C 1.0053(2) 0.4424(2) 0.3935(3)
F1 F 0.88603(14) 0.50705(15) 0.2879(2)
O1 O 0.82704(11) 0.64601(11) 0.61257(17)
C1 C 0.86593(14) 0.63407(14) 0.5000
C2 C 0.93513(15) 0.56487(15) 0.5000
C3 C 0.9424(2) 0.5053(2) 0.3935(3)
F1 F 0.99295(15) 0.61397(14) 0.7121(2)
O1 O 0.85399(11) 0.67296(11) 0.38743(17)
C3 C 0.9947(2) 0.5576(2) 0.6065(3)
C1N C 1.3393(12) 0.236(5) 0.0804(13)
C2N C 1.171(4) 0.207(4) 0.079(2)
C1N C 1.236(5) 0.1607(12) 0.0804(13)
C2N C 1.207(4) 0.329(4) 0.079(2)
C1N C 1.264(5) 0.3393(12) 0.0804(13)
C2N C 1.293(4) 0.171(4) 0.079(2)
N1 N 1.2500 0.2500 -0.1334(4)
C1N C 1.3393(12) 0.264(5) -0.0804(13)
C2N C 1.171(4) 0.293(4) -0.079(2)
C1N C 1.1607(12) 0.236(5) -0.0804(13)
C2N C 1.329(4) 0.207(4) -0.079(2)
C1N C 1.264(5) 0.1607(12) -0.0804(13)
C2N C 1.293(4) 0.329(4) -0.079(2)
C1N C 1.236(5) 0.3393(12) -0.0804(13)
C2N C 1.207(4) 0.171(4) -0.079(2)
F1 F 1.38603(14) 0.00705(15) 0.7121(2)
O1 O 1.32704(11) 0.14601(11) 0.38743(17)
C1 C 1.36593(14) 0.13407(14) 0.5000
C2 C 1.43513(15) 0.06487(15) 0.5000
C3 C 1.4424(2) 0.0053(2) 0.6065(3)
F1 F 1.49295(15) 0.11397(14) 0.2879(2)
O1 O 1.35399(11) 0.17296(11) 0.61257(17)
C3 C 1.4947(2) 0.0576(2) 0.3935(3)
F1 F 1.61397(14) -0.00705(15) 0.2879(2)
O1 O 1.67296(11) -0.14601(11) 0.61257(17)
C1 C 1.63407(14) -0.13407(14) 0.5000
C2 C 1.56487(15) -0.06487(15) 0.5000
C3 C 1.5576(2) -0.0053(2) 0.3935(3)
F1 F 1.50705(15) -0.11397(14) 0.7121(2)
O1 O 1.64601(11) -0.17296(11) 0.38743(17)
C3 C 1.5053(2) -0.0576(2) 0.6065(3)
Zn1 Zn 1.2500 0.2500 -0.34663(4)
Zn1 Zn 1.2500 0.2500 0.65337(4)
Zn1 Zn 1.7500 -0.2500 0.65337(4)
Zn1 Zn 1.7500 -0.2500 0.34663(4)
O1 O 1.14601(11) 0.17296(11) 0.38743(17)
O1 O 1.35399(11) 0.32704(11) 0.38743(17)
O1 O 1.32704(11) 0.35399(11) -0.38743(17)
O1 O 1.17296(11) 0.14601(11) -0.38743(17)
O1 O 1.35399(11) 0.17296(11) -0.38743(17)
O1 O 1.14601(11) 0.32704(11) -0.38743(17)
Zn1 Zn 1.2500 0.2500 1.34663(4)
F1 F 1.11397(14) 0.49295(15) 1.7121(2)
O1 O 1.17296(11) 0.35399(11) 1.38743(17)
N1 N 1.2500 0.2500 1.1334(4)
C1 C 1.13407(14) 0.36593(14) 1.5000
C2 C 1.06487(15) 0.43513(15) 1.5000
C3 C 1.0576(2) 0.4947(2) 1.6065(3)
C1N C 1.1607(12) 0.264(5) 1.0804(13)
C2N C 1.329(4) 0.293(4) 1.079(2)
F1 F 1.00705(15) 0.38603(14) 1.2879(2)
O1 O 1.14601(11) 0.32704(11) 1.61257(17)
C3 C 1.0053(2) 0.4424(2) 1.3935(3)
F1 F 0.88603(14) 0.50705(15) 1.2879(2)
O1 O 0.82704(11) 0.64601(11) 1.61257(17)
C1 C 0.86593(14) 0.63407(14) 1.5000
C2 C 0.93513(15) 0.56487(15) 1.5000
C3 C 0.9424(2) 0.5053(2) 1.3935(3)
F1 F 0.99295(15) 0.61397(14) 1.7121(2)
O1 O 0.85399(11) 0.67296(11) 1.38743(17)
C3 C 0.9947(2) 0.5576(2) 1.6065(3)
C1N C 1.3393(12) 0.236(5) 1.0804(13)
C2N C 1.171(4) 0.207(4) 1.079(2)
C1N C 1.236(5) 0.1607(12) 1.0804(13)
C2N C 1.207(4) 0.329(4) 1.079(2)
C1N C 1.264(5) 0.3393(12) 1.0804(13)
C2N C 1.293(4) 0.171(4) 1.079(2)
N1 N 1.2500 0.2500 0.8666(4)
C1N C 1.3393(12) 0.264(5) 0.9196(13)
C2N C 1.171(4) 0.293(4) 0.921(2)
C1N C 1.1607(12) 0.236(5) 0.9196(13)
C2N C 1.329(4) 0.207(4) 0.921(2)
C1N C 1.264(5) 0.1607(12) 0.9196(13)
C2N C 1.293(4) 0.329(4) 0.921(2)
C1N C 1.236(5) 0.3393(12) 0.9196(13)
C2N C 1.207(4) 0.171(4) 0.921(2)
F1 F 1.38603(14) 0.00705(15) 1.7121(2)
O1 O 1.32704(11) 0.14601(11) 1.38743(17)
C1 C 1.36593(14) 0.13407(14) 1.5000
C2 C 1.43513(15) 0.06487(15) 1.5000
C3 C 1.4424(2) 0.0053(2) 1.6065(3)
F1 F 1.49295(15) 0.11397(14) 1.2879(2)
O1 O 1.35399(11) 0.17296(11) 1.61257(17)
C3 C 1.4947(2) 0.0576(2) 1.3935(3)
F1 F 1.61397(14) -0.00705(15) 1.2879(2)
O1 O 1.67296(11) -0.14601(11) 1.61257(17)
C1 C 1.63407(14) -0.13407(14) 1.5000
C2 C 1.56487(15) -0.06487(15) 1.5000
C3 C 1.5576(2) -0.0053(2) 1.3935(3)
F1 F 1.50705(15) -0.11397(14) 1.7121(2)
O1 O 1.64601(11) -0.17296(11) 1.38743(17)
C3 C 1.5053(2) -0.0576(2) 1.6065(3)
Zn1 Zn 1.2500 0.2500 1.65337(4)
Zn1 Zn 1.7500 -0.2500 1.65337(4)
Zn1 Zn 1.7500 -0.2500 1.34663(4)
O1 O 1.14601(11) 0.17296(11) 1.38743(17)
O1 O 1.35399(11) 0.32704(11) 1.38743(17)
O1 O 1.32704(11) 0.35399(11) 0.61257(17)
O1 O 1.17296(11) 0.14601(11) 0.61257(17)
Zn1 Zn 1.2500 1.2500 0.34663(4)
F1 F 1.11397(14) 1.49295(15) 0.7121(2)
O1 O 1.17296(11) 1.35399(11) 0.38743(17)
N1 N 1.2500 1.2500 0.1334(4)
C1 C 1.13407(14) 1.36593(14) 0.5000
C2 C 1.06487(15) 1.43513(15) 0.5000
C3 C 1.0576(2) 1.4947(2) 0.6065(3)
C1N C 1.1607(12) 1.264(5) 0.0804(13)
C2N C 1.329(4) 1.293(4) 0.079(2)
F1 F 1.00705(15) 1.38603(14) 0.2879(2)
O1 O 1.14601(11) 1.32704(11) 0.61257(17)
C3 C 1.0053(2) 1.4424(2) 0.3935(3)
F1 F 0.88603(14) 1.50705(15) 0.2879(2)
O1 O 0.82704(11) 1.64601(11) 0.61257(17)
C1 C 0.86593(14) 1.63407(14) 0.5000
C2 C 0.93513(15) 1.56487(15) 0.5000
C3 C 0.9424(2) 1.5053(2) 0.3935(3)
F1 F 0.99295(15) 1.61397(14) 0.7121(2)
O1 O 0.85399(11) 1.67296(11) 0.38743(17)
C3 C 0.9947(2) 1.5576(2) 0.6065(3)
C1N C 1.3393(12) 1.236(5) 0.0804(13)
C2N C 1.171(4) 1.207(4) 0.079(2)
C1N C 1.236(5) 1.1607(12) 0.0804(13)
C2N C 1.207(4) 1.329(4) 0.079(2)
C1N C 1.264(5) 1.3393(12) 0.0804(13)
C2N C 1.293(4) 1.171(4) 0.079(2)
N1 N 1.2500 1.2500 -0.1334(4)
C1N C 1.3393(12) 1.264(5) -0.0804(13)
C2N C 1.171(4) 1.293(4) -0.079(2)
C1N C 1.1607(12) 1.236(5) -0.0804(13)
C2N C 1.329(4) 1.207(4) -0.079(2)
C1N C 1.264(5) 1.1607(12) -0.0804(13)
C2N C 1.293(4) 1.329(4) -0.079(2)
C1N C 1.236(5) 1.3393(12) -0.0804(13)
C2N C 1.207(4) 1.171(4) -0.079(2)
F1 F 1.38603(14) 1.00705(15) 0.7121(2)
O1 O 1.32704(11) 1.14601(11) 0.38743(17)
C1 C 1.36593(14) 1.13407(14) 0.5000
C2 C 1.43513(15) 1.06487(15) 0.5000
C3 C 1.4424(2) 1.0053(2) 0.6065(3)
F1 F 1.49295(15) 1.11397(14) 0.2879(2)
O1 O 1.35399(11) 1.17296(11) 0.61257(17)
C3 C 1.4947(2) 1.0576(2) 0.3935(3)
F1 F 1.61397(14) 0.99295(15) 0.2879(2)
O1 O 1.67296(11) 0.85399(11) 0.61257(17)
C1 C 1.63407(14) 0.86593(14) 0.5000
C2 C 1.56487(15) 0.93513(15) 0.5000
C3 C 1.5576(2) 0.9947(2) 0.3935(3)
F1 F 1.50705(15) 0.88603(14) 0.7121(2)
O1 O 1.64601(11) 0.82704(11) 0.38743(17)
C3 C 1.5053(2) 0.9424(2) 0.6065(3)
Zn1 Zn 1.2500 1.2500 -0.34663(4)
Zn1 Zn 1.2500 1.2500 0.65337(4)
Zn1 Zn 0.7500 1.7500 0.65337(4)
Zn1 Zn 1.7500 0.7500 0.65337(4)
Zn1 Zn 0.7500 1.7500 0.34663(4)
Zn1 Zn 1.7500 0.7500 0.34663(4)
O1 O 1.14601(11) 1.17296(11) 0.38743(17)
O1 O 1.35399(11) 1.32704(11) 0.38743(17)
O1 O 1.32704(11) 1.35399(11) -0.38743(17)
O1 O 1.17296(11) 1.14601(11) -0.38743(17)
O1 O 1.35399(11) 1.17296(11) -0.38743(17)
O1 O 1.14601(11) 1.32704(11) -0.38743(17)
Zn1 Zn 1.2500 1.2500 1.34663(4)
F1 F 1.11397(14) 1.49295(15) 1.7121(2)
O1 O 1.17296(11) 1.35399(11) 1.38743(17)
N1 N 1.2500 1.2500 1.1334(4)
C1 C 1.13407(14) 1.36593(14) 1.5000
C2 C 1.06487(15) 1.43513(15) 1.5000
C3 C 1.0576(2) 1.4947(2) 1.6065(3)
C1N C 1.1607(12) 1.264(5) 1.0804(13)
C2N C 1.329(4) 1.293(4) 1.079(2)
F1 F 1.00705(15) 1.38603(14) 1.2879(2)
O1 O 1.14601(11) 1.32704(11) 1.61257(17)
C3 C 1.0053(2) 1.4424(2) 1.3935(3)
F1 F 0.88603(14) 1.50705(15) 1.2879(2)
O1 O 0.82704(11) 1.64601(11) 1.61257(17)
C1 C 0.86593(14) 1.63407(14) 1.5000
C2 C 0.93513(15) 1.56487(15) 1.5000
C3 C 0.9424(2) 1.5053(2) 1.3935(3)
F1 F 0.99295(15) 1.61397(14) 1.7121(2)
O1 O 0.85399(11) 1.67296(11) 1.38743(17)
C3 C 0.9947(2) 1.5576(2) 1.6065(3)
C1N C 1.3393(12) 1.236(5) 1.0804(13)
C2N C 1.171(4) 1.207(4) 1.079(2)
C1N C 1.236(5) 1.1607(12) 1.0804(13)
C2N C 1.207(4) 1.329(4) 1.079(2)
C1N C 1.264(5) 1.3393(12) 1.0804(13)
C2N C 1.293(4) 1.171(4) 1.079(2)
N1 N 1.2500 1.2500 0.8666(4)
C1N C 1.3393(12) 1.264(5) 0.9196(13)
C2N C 1.171(4) 1.293(4) 0.921(2)
C1N C 1.1607(12) 1.236(5) 0.9196(13)
C2N C 1.329(4) 1.207(4) 0.921(2)
C1N C 1.264(5) 1.1607(12) 0.9196(13)
C2N C 1.293(4) 1.329(4) 0.921(2)
C1N C 1.236(5) 1.3393(12) 0.9196(13)
C2N C 1.207(4) 1.171(4) 0.921(2)
F1 F 1.38603(14) 1.00705(15) 1.7121(2)
O1 O 1.32704(11) 1.14601(11) 1.38743(17)
C1 C 1.36593(14) 1.13407(14) 1.5000
C2 C 1.43513(15) 1.06487(15) 1.5000
C3 C 1.4424(2) 1.0053(2) 1.6065(3)
F1 F 1.49295(15) 1.11397(14) 1.2879(2)
O1 O 1.35399(11) 1.17296(11) 1.61257(17)
C3 C 1.4947(2) 1.0576(2) 1.3935(3)
F1 F 1.61397(14) 0.99295(15) 1.2879(2)
O1 O 1.67296(11) 0.85399(11) 1.61257(17)
C1 C 1.63407(14) 0.86593(14) 1.5000
C2 C 1.56487(15) 0.93513(15) 1.5000
C3 C 1.5576(2) 0.9947(2) 1.3935(3)
F1 F 1.50705(15) 0.88603(14) 1.7121(2)
O1 O 1.64601(11) 0.82704(11) 1.38743(17)
C3 C 1.5053(2) 0.9424(2) 1.6065(3)
Zn1 Zn 1.2500 1.2500 1.65337(4)
Zn1 Zn 0.7500 1.7500 1.65337(4)
Zn1 Zn 1.7500 0.7500 1.65337(4)
Zn1 Zn 0.7500 1.7500 1.34663(4)
Zn1 Zn 1.7500 0.7500 1.34663(4)
O1 O 1.14601(11) 1.17296(11) 1.38743(17)
O1 O 1.35399(11) 1.32704(11) 1.38743(17)
O1 O 1.32704(11) 1.35399(11) 0.61257(17)
O1 O 1.17296(11) 1.14601(11) 0.61257(17)
F1 F 0.00705(15) 0.11397(14) 0.7121(2)
C1 C 0.13407(14) 0.13407(14) 0.5000
C2 C 0.06487(15) 0.06487(15) 0.5000
C3 C 0.0053(2) 0.0576(2) 0.6065(3)
F1 F 0.11397(14) 0.00705(15) 0.2879(2)
C3 C 0.0576(2) 0.0053(2) 0.3935(3)
F1 F -0.00705(15) -0.11397(14) 0.2879(2)
O1 O -0.14601(11) -0.17296(11) 0.61257(17)
C1 C -0.13407(14) -0.13407(14) 0.5000
C2 C -0.06487(15) -0.06487(15) 0.5000
C3 C -0.0053(2) -0.0576(2) 0.3935(3)
F1 F -0.11397(14) -0.00705(15) 0.7121(2)
O1 O -0.17296(11) -0.14601(11) 0.38743(17)
C3 C -0.0576(2) -0.0053(2) 0.6065(3)
F1 F 0.49295(15) 0.38603(14) 0.7121(2)
C1 C 0.36593(14) 0.36593(14) 0.5000
C2 C 0.43513(15) 0.43513(15) 0.5000
C3 C 0.4947(2) 0.4424(2) 0.6065(3)
F1 F 0.38603(14) 0.49295(15) 0.2879(2)
C3 C 0.4424(2) 0.4947(2) 0.3935(3)
F1 F 0.50705(15) 0.61397(14) 0.2879(2)
O1 O 0.64601(11) 0.67296(11) 0.61257(17)
C1 C 0.63407(14) 0.63407(14) 0.5000
C2 C 0.56487(15) 0.56487(15) 0.5000
C3 C 0.5053(2) 0.5576(2) 0.3935(3)
F1 F 0.61397(14) 0.50705(15) 0.7121(2)
O1 O 0.67296(11) 0.64601(11) 0.38743(17)
C3 C 0.5576(2) 0.5053(2) 0.6065(3)
Zn1 Zn -0.2500 -0.2500 0.65337(4)
Zn1 Zn -0.2500 -0.2500 0.34663(4)
F1 F 0.00705(15) 0.11397(14) 1.7121(2)
C1 C 0.13407(14) 0.13407(14) 1.5000
C2 C 0.06487(15) 0.06487(15) 1.5000
C3 C 0.0053(2) 0.0576(2) 1.6065(3)
F1 F 0.11397(14) 0.00705(15) 1.2879(2)
O1 O 0.17296(11) 0.14601(11) 1.61257(17)
C3 C 0.0576(2) 0.0053(2) 1.3935(3)
F1 F -0.00705(15) -0.11397(14) 1.2879(2)
O1 O -0.14601(11) -0.17296(11) 1.61257(17)
C1 C -0.13407(14) -0.13407(14) 1.5000
C2 C -0.06487(15) -0.06487(15) 1.5000
C3 C -0.0053(2) -0.0576(2) 1.3935(3)
F1 F -0.11397(14) -0.00705(15) 1.7121(2)
O1 O -0.17296(11) -0.14601(11) 1.38743(17)
C3 C -0.0576(2) -0.0053(2) 1.6065(3)
F1 F 0.49295(15) 0.38603(14) 1.7121(2)
C1 C 0.36593(14) 0.36593(14) 1.5000
C2 C 0.43513(15) 0.43513(15) 1.5000
C3 C 0.4947(2) 0.4424(2) 1.6065(3)
F1 F 0.38603(14) 0.49295(15) 1.2879(2)
O1 O 0.32704(11) 0.35399(11) 1.61257(17)
C3 C 0.4424(2) 0.4947(2) 1.3935(3)
F1 F 0.50705(15) 0.61397(14) 1.2879(2)
O1 O 0.64601(11) 0.67296(11) 1.61257(17)
C1 C 0.63407(14) 0.63407(14) 1.5000
C2 C 0.56487(15) 0.56487(15) 1.5000
C3 C 0.5053(2) 0.5576(2) 1.3935(3)
F1 F 0.61397(14) 0.50705(15) 1.7121(2)
O1 O 0.67296(11) 0.64601(11) 1.38743(17)
C3 C 0.5576(2) 0.5053(2) 1.6065(3)
Zn1 Zn -0.2500 -0.2500 1.65337(4)
Zn1 Zn -0.2500 -0.2500 1.34663(4)
F1 F 0.00705(15) 1.11397(14) 0.7121(2)
C1 C 0.13407(14) 1.13407(14) 0.5000
C2 C 0.06487(15) 1.06487(15) 0.5000
C3 C 0.0053(2) 1.0576(2) 0.6065(3)
F1 F 0.11397(14) 1.00705(15) 0.2879(2)
C3 C 0.0576(2) 1.0053(2) 0.3935(3)
F1 F -0.00705(15) 0.88603(14) 0.2879(2)
O1 O -0.14601(11) 0.82704(11) 0.61257(17)
C1 C -0.13407(14) 0.86593(14) 0.5000
C2 C -0.06487(15) 0.93513(15) 0.5000
C3 C -0.0053(2) 0.9424(2) 0.3935(3)
F1 F -0.11397(14) 0.99295(15) 0.7121(2)
O1 O -0.17296(11) 0.85399(11) 0.38743(17)
C3 C -0.0576(2) 0.9947(2) 0.6065(3)
F1 F 0.49295(15) 1.38603(14) 0.7121(2)
C1 C 0.36593(14) 1.36593(14) 0.5000
C2 C 0.43513(15) 1.43513(15) 0.5000
C3 C 0.4947(2) 1.4424(2) 0.6065(3)
F1 F 0.38603(14) 1.49295(15) 0.2879(2)
C3 C 0.4424(2) 1.4947(2) 0.3935(3)
F1 F 0.50705(15) 1.61397(14) 0.2879(2)
O1 O 0.64601(11) 1.67296(11) 0.61257(17)
C1 C 0.63407(14) 1.63407(14) 0.5000
C2 C 0.56487(15) 1.56487(15) 0.5000
C3 C 0.5053(2) 1.5576(2) 0.3935(3)
F1 F 0.61397(14) 1.50705(15) 0.7121(2)
O1 O 0.67296(11) 1.64601(11) 0.38743(17)
C3 C 0.5576(2) 1.5053(2) 0.6065(3)
F1 F 0.00705(15) 1.11397(14) 1.7121(2)
C1 C 0.13407(14) 1.13407(14) 1.5000
C2 C 0.06487(15) 1.06487(15) 1.5000
C3 C 0.0053(2) 1.0576(2) 1.6065(3)
F1 F 0.11397(14) 1.00705(15) 1.2879(2)
O1 O 0.17296(11) 1.14601(11) 1.61257(17)
C3 C 0.0576(2) 1.0053(2) 1.3935(3)
F1 F -0.00705(15) 0.88603(14) 1.2879(2)
O1 O -0.14601(11) 0.82704(11) 1.61257(17)
C1 C -0.13407(14) 0.86593(14) 1.5000
C2 C -0.06487(15) 0.93513(15) 1.5000
C3 C -0.0053(2) 0.9424(2) 1.3935(3)
F1 F -0.11397(14) 0.99295(15) 1.7121(2)
O1 O -0.17296(11) 0.85399(11) 1.38743(17)
C3 C -0.0576(2) 0.9947(2) 1.6065(3)
F1 F 0.49295(15) 1.38603(14) 1.7121(2)
C1 C 0.36593(14) 1.36593(14) 1.5000
C2 C 0.43513(15) 1.43513(15) 1.5000
C3 C 0.4947(2) 1.4424(2) 1.6065(3)
F1 F 0.38603(14) 1.49295(15) 1.2879(2)
O1 O 0.32704(11) 1.35399(11) 1.61257(17)
C3 C 0.4424(2) 1.4947(2) 1.3935(3)
F1 F 0.50705(15) 1.61397(14) 1.2879(2)
O1 O 0.64601(11) 1.67296(11) 1.61257(17)
C1 C 0.63407(14) 1.63407(14) 1.5000
C2 C 0.56487(15) 1.56487(15) 1.5000
C3 C 0.5053(2) 1.5576(2) 1.3935(3)
F1 F 0.61397(14) 1.50705(15) 1.7121(2)
O1 O 0.67296(11) 1.64601(11) 1.38743(17)
C3 C 0.5576(2) 1.5053(2) 1.6065(3)
F1 F 1.00705(15) 0.11397(14) 0.7121(2)
C1 C 1.13407(14) 0.13407(14) 0.5000
C2 C 1.06487(15) 0.06487(15) 0.5000
C3 C 1.0053(2) 0.0576(2) 0.6065(3)
F1 F 1.11397(14) 0.00705(15) 0.2879(2)
C3 C 1.0576(2) 0.0053(2) 0.3935(3)
F1 F 0.99295(15) -0.11397(14) 0.2879(2)
O1 O 0.85399(11) -0.17296(11) 0.61257(17)
C1 C 0.86593(14) -0.13407(14) 0.5000
C2 C 0.93513(15) -0.06487(15) 0.5000
C3 C 0.9947(2) -0.0576(2) 0.3935(3)
F1 F 0.88603(14) -0.00705(15) 0.7121(2)
O1 O 0.82704(11) -0.14601(11) 0.38743(17)
C3 C 0.9424(2) -0.0053(2) 0.6065(3)
F1 F 1.49295(15) 0.38603(14) 0.7121(2)
C1 C 1.36593(14) 0.36593(14) 0.5000
C2 C 1.43513(15) 0.43513(15) 0.5000
C3 C 1.4947(2) 0.4424(2) 0.6065(3)
F1 F 1.38603(14) 0.49295(15) 0.2879(2)
C3 C 1.4424(2) 0.4947(2) 0.3935(3)
F1 F 1.50705(15) 0.61397(14) 0.2879(2)
O1 O 1.64601(11) 0.67296(11) 0.61257(17)
C1 C 1.63407(14) 0.63407(14) 0.5000
C2 C 1.56487(15) 0.56487(15) 0.5000
C3 C 1.5053(2) 0.5576(2) 0.3935(3)
F1 F 1.61397(14) 0.50705(15) 0.7121(2)
O1 O 1.67296(11) 0.64601(11) 0.38743(17)
C3 C 1.5576(2) 0.5053(2) 0.6065(3)
F1 F 1.00705(15) 0.11397(14) 1.7121(2)
C1 C 1.13407(14) 0.13407(14) 1.5000
C2 C 1.06487(15) 0.06487(15) 1.5000
C3 C 1.0053(2) 0.0576(2) 1.6065(3)
F1 F 1.11397(14) 0.00705(15) 1.2879(2)
O1 O 1.17296(11) 0.14601(11) 1.61257(17)
C3 C 1.0576(2) 0.0053(2) 1.3935(3)
F1 F 0.99295(15) -0.11397(14) 1.2879(2)
O1 O 0.85399(11) -0.17296(11) 1.61257(17)
C1 C 0.86593(14) -0.13407(14) 1.5000
C2 C 0.93513(15) -0.06487(15) 1.5000
C3 C 0.9947(2) -0.0576(2) 1.3935(3)
F1 F 0.88603(14) -0.00705(15) 1.7121(2)
O1 O 0.82704(11) -0.14601(11) 1.38743(17)
C3 C 0.9424(2) -0.0053(2) 1.6065(3)
F1 F 1.49295(15) 0.38603(14) 1.7121(2)
C1 C 1.36593(14) 0.36593(14) 1.5000
C2 C 1.43513(15) 0.43513(15) 1.5000
C3 C 1.4947(2) 0.4424(2) 1.6065(3)
F1 F 1.38603(14) 0.49295(15) 1.2879(2)
O1 O 1.32704(11) 0.35399(11) 1.61257(17)
C3 C 1.4424(2) 0.4947(2) 1.3935(3)
F1 F 1.50705(15) 0.61397(14) 1.2879(2)
O1 O 1.64601(11) 0.67296(11) 1.61257(17)
C1 C 1.63407(14) 0.63407(14) 1.5000
C2 C 1.56487(15) 0.56487(15) 1.5000
C3 C 1.5053(2) 0.5576(2) 1.3935(3)
F1 F 1.61397(14) 0.50705(15) 1.7121(2)
O1 O 1.67296(11) 0.64601(11) 1.38743(17)
C3 C 1.5576(2) 0.5053(2) 1.6065(3)
F1 F 1.00705(15) 1.11397(14) 0.7121(2)
C1 C 1.13407(14) 1.13407(14) 0.5000
C2 C 1.06487(15) 1.06487(15) 0.5000
C3 C 1.0053(2) 1.0576(2) 0.6065(3)
F1 F 1.11397(14) 1.00705(15) 0.2879(2)
C3 C 1.0576(2) 1.0053(2) 0.3935(3)
F1 F 0.99295(15) 0.88603(14) 0.2879(2)
O1 O 0.85399(11) 0.82704(11) 0.61257(17)
C1 C 0.86593(14) 0.86593(14) 0.5000
C2 C 0.93513(15) 0.93513(15) 0.5000
C3 C 0.9947(2) 0.9424(2) 0.3935(3)
F1 F 0.88603(14) 0.99295(15) 0.7121(2)
O1 O 0.82704(11) 0.85399(11) 0.38743(17)
C3 C 0.9424(2) 0.9947(2) 0.6065(3)
F1 F 1.49295(15) 1.38603(14) 0.7121(2)
C1 C 1.36593(14) 1.36593(14) 0.5000
C2 C 1.43513(15) 1.43513(15) 0.5000
C3 C 1.4947(2) 1.4424(2) 0.6065(3)
F1 F 1.38603(14) 1.49295(15) 0.2879(2)
C3 C 1.4424(2) 1.4947(2) 0.3935(3)
F1 F 1.50705(15) 1.61397(14) 0.2879(2)
O1 O 1.64601(11) 1.67296(11) 0.61257(17)
C1 C 1.63407(14) 1.63407(14) 0.5000
C2 C 1.56487(15) 1.56487(15) 0.5000
C3 C 1.5053(2) 1.5576(2) 0.3935(3)
F1 F 1.61397(14) 1.50705(15) 0.7121(2)
O1 O 1.67296(11) 1.64601(11) 0.38743(17)
C3 C 1.5576(2) 1.5053(2) 0.6065(3)
Zn1 Zn 1.7500 1.7500 0.65337(4)
Zn1 Zn 1.7500 1.7500 0.34663(4)
F1 F 1.00705(15) 1.11397(14) 1.7121(2)
C1 C 1.13407(14) 1.13407(14) 1.5000
C2 C 1.06487(15) 1.06487(15) 1.5000
C3 C 1.0053(2) 1.0576(2) 1.6065(3)
F1 F 1.11397(14) 1.00705(15) 1.2879(2)
O1 O 1.17296(11) 1.14601(11) 1.61257(17)
C3 C 1.0576(2) 1.0053(2) 1.3935(3)
F1 F 0.99295(15) 0.88603(14) 1.2879(2)
O1 O 0.85399(11) 0.82704(11) 1.61257(17)
C1 C 0.86593(14) 0.86593(14) 1.5000
C2 C 0.93513(15) 0.93513(15) 1.5000
C3 C 0.9947(2) 0.9424(2) 1.3935(3)
F1 F 0.88603(14) 0.99295(15) 1.7121(2)
O1 O 0.82704(11) 0.85399(11) 1.38743(17)
C3 C 0.9424(2) 0.9947(2) 1.6065(3)
F1 F 1.49295(15) 1.38603(14) 1.7121(2)
C1 C 1.36593(14) 1.36593(14) 1.5000
C2 C 1.43513(15) 1.43513(15) 1.5000
C3 C 1.4947(2) 1.4424(2) 1.6065(3)
F1 F 1.38603(14) 1.49295(15) 1.2879(2)
O1 O 1.32704(11) 1.35399(11) 1.61257(17)
C3 C 1.4424(2) 1.4947(2) 1.3935(3)
F1 F 1.50705(15) 1.61397(14) 1.2879(2)
O1 O 1.64601(11) 1.67296(11) 1.61257(17)
C1 C 1.63407(14) 1.63407(14) 1.5000
C2 C 1.56487(15) 1.56487(15) 1.5000
C3 C 1.5053(2) 1.5576(2) 1.3935(3)
F1 F 1.61397(14) 1.50705(15) 1.7121(2)
O1 O 1.67296(11) 1.64601(11) 1.38743(17)
C3 C 1.5576(2) 1.5053(2) 1.6065(3)
Zn1 Zn 1.7500 1.7500 1.65337(4)
Zn1 Zn 1.7500 1.7500 1.34663(4)
N1 N 0.7500 0.7500 0.8666(4)
C1N C 0.8393(12) 0.736(5) 0.9196(13)
C2N C 0.671(4) 0.707(4) 0.921(2)
C1N C 0.6607(12) 0.764(5) 0.9196(13)
C2N C 0.829(4) 0.793(4) 0.921(2)
C1N C 0.764(5) 0.8393(12) 0.9196(13)
C2N C 0.793(4) 0.671(4) 0.921(2)
C1N C 0.736(5) 0.6607(12) 0.9196(13)
C2N C 0.707(4) 0.829(4) 0.921(2)
N1 N 0.7500 0.7500 1.1334(4)
C1N C 0.6607(12) 0.736(5) 1.0804(13)
C2N C 0.829(4) 0.707(4) 1.079(2)
C1N C 0.8393(12) 0.764(5) 1.0804(13)
C2N C 0.671(4) 0.793(4) 1.079(2)
C1N C 0.736(5) 0.8393(12) 1.0804(13)
C2N C 0.707(4) 0.671(4) 1.079(2)
C1N C 0.764(5) 0.6607(12) 1.0804(13)
C2N C 0.793(4) 0.829(4) 1.079(2)
N1 N 0.7500 0.7500 0.1334(4)
C1N C 0.6607(12) 0.736(5) 0.0804(13)
C2N C 0.829(4) 0.707(4) 0.079(2)
C1N C 0.8393(12) 0.764(5) 0.0804(13)
C2N C 0.671(4) 0.793(4) 0.079(2)
C1N C 0.736(5) 0.8393(12) 0.0804(13)
C2N C 0.707(4) 0.671(4) 0.079(2)
C1N C 0.764(5) 0.6607(12) 0.0804(13)
C2N C 0.793(4) 0.829(4) 0.079(2)
N1 N 0.7500 0.7500 -0.1334(4)
C1N C 0.8393(12) 0.736(5) -0.0804(13)
C2N C 0.671(4) 0.707(4) -0.079(2)
C1N C 0.6607(12) 0.764(5) -0.0804(13)
C2N C 0.829(4) 0.793(4) -0.079(2)
C1N C 0.764(5) 0.8393(12) -0.0804(13)
C2N C 0.793(4) 0.671(4) -0.079(2)
C1N C 0.736(5) 0.6607(12) -0.0804(13)
C2N C 0.707(4) 0.829(4) -0.079(2)
Zn1 Zn 0.7500 0.7500 -0.34663(4)
O1 O 0.82704(11) 0.64601(11) -0.38743(17)
O1 O 0.67296(11) 0.85399(11) -0.38743(17)
O1 O 0.85399(11) 0.82704(11) -0.38743(17)
O1 O 0.64601(11) 0.67296(11) -0.38743(17)
C1N' C 0.231(5) 0.341(3) 0.077(4)
C2N' C 0.303(4) 0.323(3) 0.0817(18)
H1N H 0.3496 0.3284 0.1168
H2N H 0.2365 0.3796 0.1221
H3N H 0.1269 0.2878 0.1217
C1N' C 0.231(5) 0.341(3) 1.077(4)
C2N' C 0.303(4) 0.323(3) 1.0817(18)
H1N H 0.3496 0.3284 1.1168
H2N H 0.2365 0.3796 1.1221
H3N H 0.1269 0.2878 1.1217
C1N' C 0.231(5) 1.341(3) 0.077(4)
C2N' C 0.303(4) 1.323(3) 0.0817(18)
H1N H 0.3496 1.3284 0.1168
H2N H 0.2365 1.3796 0.1221
H3N H 0.1269 1.2878 0.1217
C1N' C 0.231(5) 1.341(3) 1.077(4)
C2N' C 0.303(4) 1.323(3) 1.0817(18)
H1N H 0.3496 1.3284 1.1168
H2N H 0.2365 1.3796 1.1221
H3N H 0.1269 1.2878 1.1217
C1N' C 1.231(5) 0.341(3) 0.077(4)
C2N' C 1.303(4) 0.323(3) 0.0817(18)
H1N H 1.3496 0.3284 0.1168
H2N H 1.2365 0.3796 0.1221
H3N H 1.1269 0.2878 0.1217
C1N' C 1.231(5) 0.341(3) 1.077(4)
C2N' C 1.303(4) 0.323(3) 1.0817(18)
H1N H 1.3496 0.3284 1.1168
H2N H 1.2365 0.3796 1.1221
H3N H 1.1269 0.2878 1.1217
C1N' C 1.231(5) 1.341(3) 0.077(4)
C2N' C 1.303(4) 1.323(3) 0.0817(18)
H1N H 1.3496 1.3284 0.1168
H2N H 1.2365 1.3796 0.1221
H3N H 1.1269 1.2878 0.1217
C1N' C 1.231(5) 1.341(3) 1.077(4)
C2N' C 1.303(4) 1.323(3) 1.0817(18)
H1N H 1.3496 1.3284 1.1168
H2N H 1.2365 1.3796 1.1221
H3N H 1.1269 1.2878 1.1217
C1N' C 0.269(5) 0.159(3) 0.077(4)
C2N' C 0.197(4) 0.177(3) 0.0817(18)
H1N H 0.1504 0.1716 0.1168
H2N H 0.2635 0.1204 0.1221
H3N H 0.3731 0.2122 0.1217
C1N' C 0.269(5) 0.159(3) 1.077(4)
C2N' C 0.197(4) 0.177(3) 1.0817(18)
H1N H 0.1504 0.1716 1.1168
H2N H 0.2635 0.1204 1.1221
H3N H 0.3731 0.2122 1.1217
C1N' C 0.269(5) 1.159(3) 0.077(4)
C2N' C 0.197(4) 1.177(3) 0.0817(18)
H1N H 0.1504 1.1716 0.1168
H2N H 0.2635 1.1204 0.1221
H3N H 0.3731 1.2122 0.1217
C1N' C 0.269(5) 1.159(3) 1.077(4)
C2N' C 0.197(4) 1.177(3) 1.0817(18)
H1N H 0.1504 1.1716 1.1168
H2N H 0.2635 1.1204 1.1221
H3N H 0.3731 1.2122 1.1217
C1N' C 1.269(5) 0.159(3) 0.077(4)
C2N' C 1.197(4) 0.177(3) 0.0817(18)
H1N H 1.1504 0.1716 0.1168
H2N H 1.2635 0.1204 0.1221
H3N H 1.3731 0.2122 0.1217
C1N' C 1.269(5) 0.159(3) 1.077(4)
C2N' C 1.197(4) 0.177(3) 1.0817(18)
H1N H 1.1504 0.1716 1.1168
H2N H 1.2635 0.1204 1.1221
H3N H 1.3731 0.2122 1.1217
C1N' C 1.269(5) 1.159(3) 0.077(4)
C2N' C 1.197(4) 1.177(3) 0.0817(18)
H1N H 1.1504 1.1716 0.1168
H2N H 1.2635 1.1204 0.1221
H3N H 1.3731 1.2122 0.1217
C1N' C 1.269(5) 1.159(3) 1.077(4)
C2N' C 1.197(4) 1.177(3) 1.0817(18)
H1N H 1.1504 1.1716 1.1168
H2N H 1.2635 1.1204 1.1221
H3N H 1.3731 1.2122 1.1217
C1N' C 0.159(3) 0.231(5) 0.077(4)
C2N' C 0.177(3) 0.303(4) 0.0817(18)
H1N H 0.1716 0.3496 0.1168
H2N H 0.1204 0.2365 0.1221
H3N H 0.2122 0.1269 0.1217
C1N' C 0.159(3) 0.231(5) 1.077(4)
C2N' C 0.177(3) 0.303(4) 1.0817(18)
H1N H 0.1716 0.3496 1.1168
H2N H 0.1204 0.2365 1.1221
H3N H 0.2122 0.1269 1.1217
C1N' C 0.159(3) 1.231(5) 0.077(4)
C2N' C 0.177(3) 1.303(4) 0.0817(18)
H1N H 0.1716 1.3496 0.1168
H2N H 0.1204 1.2365 0.1221
H3N H 0.2122 1.1269 0.1217
C1N' C 0.159(3) 1.231(5) 1.077(4)
C2N' C 0.177(3) 1.303(4) 1.0817(18)
H1N H 0.1716 1.3496 1.1168
H2N H 0.1204 1.2365 1.1221
H3N H 0.2122 1.1269 1.1217
C1N' C 1.159(3) 0.231(5) 0.077(4)
C2N' C 1.177(3) 0.303(4) 0.0817(18)
H1N H 1.1716 0.3496 0.1168
H2N H 1.1204 0.2365 0.1221
H3N H 1.2122 0.1269 0.1217
C1N' C 1.159(3) 0.231(5) 1.077(4)
C2N' C 1.177(3) 0.303(4) 1.0817(18)
H1N H 1.1716 0.3496 1.1168
H2N H 1.1204 0.2365 1.1221
H3N H 1.2122 0.1269 1.1217
C1N' C 1.159(3) 1.231(5) 0.077(4)
C2N' C 1.177(3) 1.303(4) 0.0817(18)
H1N H 1.1716 1.3496 0.1168
H2N H 1.1204 1.2365 0.1221
H3N H 1.2122 1.1269 0.1217
C1N' C 1.159(3) 1.231(5) 1.077(4)
C2N' C 1.177(3) 1.303(4) 1.0817(18)
H1N H 1.1716 1.3496 1.1168
H2N H 1.1204 1.2365 1.1221
H3N H 1.2122 1.1269 1.1217
C1N' C 0.341(3) 0.269(5) 0.077(4)
C2N' C 0.323(3) 0.197(4) 0.0817(18)
H1N H 0.3284 0.1504 0.1168
H2N H 0.3796 0.2635 0.1221
H3N H 0.2878 0.3731 0.1217
C1N' C 0.341(3) 0.269(5) 1.077(4)
C2N' C 0.323(3) 0.197(4) 1.0817(18)
H1N H 0.3284 0.1504 1.1168
H2N H 0.3796 0.2635 1.1221
H3N H 0.2878 0.3731 1.1217
C1N' C 0.341(3) 1.269(5) 0.077(4)
C2N' C 0.323(3) 1.197(4) 0.0817(18)
H1N H 0.3284 1.1504 0.1168
H2N H 0.3796 1.2635 0.1221
H3N H 0.2878 1.3731 0.1217
C1N' C 0.341(3) 1.269(5) 1.077(4)
C2N' C 0.323(3) 1.197(4) 1.0817(18)
H1N H 0.3284 1.1504 1.1168
H2N H 0.3796 1.2635 1.1221
H3N H 0.2878 1.3731 1.1217
C1N' C 1.341(3) 0.269(5) 0.077(4)
C2N' C 1.323(3) 0.197(4) 0.0817(18)
H1N H 1.3284 0.1504 0.1168
H2N H 1.3796 0.2635 0.1221
H3N H 1.2878 0.3731 0.1217
C1N' C 1.341(3) 0.269(5) 1.077(4)
C2N' C 1.323(3) 0.197(4) 1.0817(18)
H1N H 1.3284 0.1504 1.1168
H2N H 1.3796 0.2635 1.1221
H3N H 1.2878 0.3731 1.1217
C1N' C 1.341(3) 1.269(5) 0.077(4)
C2N' C 1.323(3) 1.197(4) 0.0817(18)
H1N H 1.3284 1.1504 0.1168
H2N H 1.3796 1.2635 0.1221
H3N H 1.2878 1.3731 0.1217
C1N' C 1.341(3) 1.269(5) 1.077(4)
C2N' C 1.323(3) 1.197(4) 1.0817(18)
H1N H 1.3284 1.1504 1.1168
H2N H 1.3796 1.2635 1.1221
H3N H 1.2878 1.3731 1.1217
C1N' C 0.269(5) 0.341(3) 0.923(4)
C2N' C 0.197(4) 0.323(3) 0.9183(18)
H1N H 0.1504 0.3284 0.8832
H2N H 0.2635 0.3796 0.8779
H3N H 0.3731 0.2878 0.8783
C1N' C 0.269(5) 1.341(3) 0.923(4)
C2N' C 0.197(4) 1.323(3) 0.9183(18)
H1N H 0.1504 1.3284 0.8832
H2N H 0.2635 1.3796 0.8779
H3N H 0.3731 1.2878 0.8783
C1N' C 1.269(5) 0.341(3) 0.923(4)
C2N' C 1.197(4) 0.323(3) 0.9183(18)
H1N H 1.1504 0.3284 0.8832
H2N H 1.2635 0.3796 0.8779
H3N H 1.3731 0.2878 0.8783
C1N' C 1.269(5) 1.341(3) 0.923(4)
C2N' C 1.197(4) 1.323(3) 0.9183(18)
H1N H 1.1504 1.3284 0.8832
H2N H 1.2635 1.3796 0.8779
H3N H 1.3731 1.2878 0.8783
C1N' C 0.231(5) 0.159(3) 0.923(4)
C2N' C 0.303(4) 0.177(3) 0.9183(18)
H1N H 0.3496 0.1716 0.8832
H2N H 0.2365 0.1204 0.8779
H3N H 0.1269 0.2122 0.8783
C1N' C 0.231(5) 1.159(3) 0.923(4)
C2N' C 0.303(4) 1.177(3) 0.9183(18)
H1N H 0.3496 1.1716 0.8832
H2N H 0.2365 1.1204 0.8779
H3N H 0.1269 1.2122 0.8783
C1N' C 1.231(5) 0.159(3) 0.923(4)
C2N' C 1.303(4) 0.177(3) 0.9183(18)
H1N H 1.3496 0.1716 0.8832
H2N H 1.2365 0.1204 0.8779
H3N H 1.1269 0.2122 0.8783
C1N' C 1.231(5) 1.159(3) 0.923(4)
C2N' C 1.303(4) 1.177(3) 0.9183(18)
H1N H 1.3496 1.1716 0.8832
H2N H 1.2365 1.1204 0.8779
H3N H 1.1269 1.2122 0.8783
C1N' C 0.341(3) 0.231(5) 0.923(4)
C2N' C 0.323(3) 0.303(4) 0.9183(18)
H1N H 0.3284 0.3496 0.8832
H2N H 0.3796 0.2365 0.8779
H3N H 0.2878 0.1269 0.8783
C1N' C 0.341(3) 1.231(5) 0.923(4)
C2N' C 0.323(3) 1.303(4) 0.9183(18)
H1N H 0.3284 1.3496 0.8832
H2N H 0.3796 1.2365 0.8779
H3N H 0.2878 1.1269 0.8783
C1N' C 1.341(3) 0.231(5) 0.923(4)
C2N' C 1.323(3) 0.303(4) 0.9183(18)
H1N H 1.3284 0.3496 0.8832
H2N H 1.3796 0.2365 0.8779
H3N H 1.2878 0.1269 0.8783
C1N' C 1.341(3) 1.231(5) 0.923(4)
C2N' C 1.323(3) 1.303(4) 0.9183(18)
H1N H 1.3284 1.3496 0.8832
H2N H 1.3796 1.2365 0.8779
H3N H 1.2878 1.1269 0.8783
C1N' C 0.159(3) 0.269(5) 0.923(4)
C2N' C 0.177(3) 0.197(4) 0.9183(18)
H1N H 0.1716 0.1504 0.8832
H2N H 0.1204 0.2635 0.8779
H3N H 0.2122 0.3731 0.8783
C1N' C 0.159(3) 1.269(5) 0.923(4)
C2N' C 0.177(3) 1.197(4) 0.9183(18)
H1N H 0.1716 1.1504 0.8832
H2N H 0.1204 1.2635 0.8779
H3N H 0.2122 1.3731 0.8783
C1N' C 1.159(3) 0.269(5) 0.923(4)
C2N' C 1.177(3) 0.197(4) 0.9183(18)
H1N H 1.1716 0.1504 0.8832
H2N H 1.1204 0.2635 0.8779
H3N H 1.2122 0.3731 0.8783
C1N' C 1.159(3) 1.269(5) 0.923(4)
C2N' C 1.177(3) 1.197(4) 0.9183(18)
H1N H 1.1716 1.1504 0.8832
H2N H 1.1204 1.2635 0.8779
H3N H 1.2122 1.3731 0.8783
C1N' C 0.769(5) 0.659(3) 0.923(4)
C2N' C 0.697(4) 0.677(3) 0.9183(18)
H1N H 0.6504 0.6716 0.8832
H2N H 0.7635 0.6204 0.8779
H3N H 0.8731 0.7122 0.8783
C1N' C 0.731(5) 0.841(3) 0.923(4)
C2N' C 0.803(4) 0.823(3) 0.9183(18)
H1N H 0.8496 0.8284 0.8832
H2N H 0.7365 0.8796 0.8779
H3N H 0.6269 0.7878 0.8783
C1N' C 0.841(3) 0.769(5) 0.923(4)
C2N' C 0.823(3) 0.697(4) 0.9183(18)
H1N H 0.8284 0.6504 0.8832
H2N H 0.8796 0.7635 0.8779
H3N H 0.7878 0.8731 0.8783
C1N' C 0.659(3) 0.731(5) 0.923(4)
C2N' C 0.677(3) 0.803(4) 0.9183(18)
H1N H 0.6716 0.8496 0.8832
H2N H 0.6204 0.7365 0.8779
H3N H 0.7122 0.6269 0.8783
C1N' C 0.731(5) 0.659(3) 0.077(4)
C2N' C 0.803(4) 0.677(3) 0.0817(18)
H1N H 0.8496 0.6716 0.1168
H2N H 0.7365 0.6204 0.1221
H3N H 0.6269 0.7122 0.1217
C1N' C 0.731(5) 0.659(3) 1.077(4)
C2N' C 0.803(4) 0.677(3) 1.0817(18)
H1N H 0.8496 0.6716 1.1168
H2N H 0.7365 0.6204 1.1221
H3N H 0.6269 0.7122 1.1217
C1N' C 0.769(5) 0.841(3) 0.077(4)
C2N' C 0.697(4) 0.823(3) 0.0817(18)
H1N H 0.6504 0.8284 0.1168
H2N H 0.7635 0.8796 0.1221
H3N H 0.8731 0.7878 0.1217
C1N' C 0.769(5) 0.841(3) 1.077(4)
C2N' C 0.697(4) 0.823(3) 1.0817(18)
H1N H 0.6504 0.8284 1.1168
H2N H 0.7635 0.8796 1.1221
H3N H 0.8731 0.7878 1.1217
C1N' C 0.659(3) 0.769(5) 0.077(4)
C2N' C 0.677(3) 0.697(4) 0.0817(18)
H1N H 0.6716 0.6504 0.1168
H2N H 0.6204 0.7635 0.1221
H3N H 0.7122 0.8731 0.1217
C1N' C 0.659(3) 0.769(5) 1.077(4)
C2N' C 0.677(3) 0.697(4) 1.0817(18)
H1N H 0.6716 0.6504 1.1168
H2N H 0.6204 0.7635 1.1221
H3N H 0.7122 0.8731 1.1217
C1N' C 0.841(3) 0.731(5) 0.077(4)
C2N' C 0.823(3) 0.803(4) 0.0817(18)
H1N H 0.8284 0.8496 0.1168
H2N H 0.8796 0.7365 0.1221
H3N H 0.7878 0.6269 0.1217
C1N' C 0.841(3) 0.731(5) 1.077(4)
C2N' C 0.823(3) 0.803(4) 1.0817(18)
H1N H 0.8284 0.8496 1.1168
H2N H 0.8796 0.7365 1.1221
H3N H 0.7878 0.6269 1.1217

#END
